10
Lattice="16.28999089631971 0.0 0.0 0.0 16.28999089631971 0.0 0.0 0.0 34.28971787722196" Properties=species:S:1:pos:R:3:initial_magmoms:R:1 pbc="T T T"
Si       0.17366769       2.31933762      -0.07231706       0.00000000
Si       1.43418789       0.18611325       1.87876898       0.00000000
Si      -0.79420266      -1.17830457      -1.98468998       0.00000000
Si      -1.83580155      -0.27210816       1.63298015       0.00000000
Si      -0.40832514       0.97174737       3.11968028       0.00000000
Si      -3.30115221       1.13010246       0.52741045       0.00000000
Si       2.14987275       2.54154951       1.41325151       0.00000000
Si      -2.11502844       3.01871619      -0.25525280       0.00000000
Si       1.33076268       2.77905771      -2.04761165       0.00000000
Si      -2.72235222      -2.35916667      -1.15566701       0.00000000
