10
Lattice="16.28999089631971 0.0 0.0 0.0 16.28999089631971 0.0 0.0 0.0 34.28971787722196" Properties=species:S:1:pos:R:3:initial_magmoms:R:1 pbc="T T T"
Si       1.35681970       1.35646830       1.35681060       0.00000000
Si      -1.35812776      -1.35818689       1.35636484       0.00000000
Si      -1.35716665       1.35770634      -1.35804504       0.00000000
Si       1.35803167      -1.35771937      -1.35804504       0.00000000
Si      -2.71480783       2.71511946      -0.00024003       0.00000000
Si       0.00194855      -2.71532680      -2.71468419       0.00000000
Si       2.71565005       2.71464705       0.00010287       0.00000000
Si      -2.71501960      -2.71533512      -0.00010287       0.00000000
Si       2.71512877      -2.71541289      -0.00037719       0.00000000
Si      -2.71550830      -0.00112401      -2.71554144       0.00000000
