10
Lattice="16.28999089631971 0.0 0.0 0.0 16.28999089631971 0.0 0.0 0.0 34.28971787722196" Properties=species:S:1:pos:R:3:initial_magmoms:R:1 pbc="T T T"
Si      -1.35617508      -1.35633798      -1.35687918       0.00000000
Si      -1.35231435       1.35884556       1.36047961       0.00000000
Si       1.35902583       1.35803544      -1.35667345       0.00000000
Si       1.36106208      -1.35431802       1.36418290       0.00000000
Si      -2.71336014       0.00110772      -2.71362121       0.00000000
Si      -2.71308321      -2.71511946      -0.00058293       0.00000000
Si       0.00112401      -2.71423980      -2.71454703       0.00000000
Si       0.00107514       2.71563164      -2.71440987       0.00000000
Si      -2.70514998      -0.02759526       2.72490253       0.00000000
Si      -2.71484253       2.71556811      -0.00030861       0.00000000
