10
Lattice="16.28999089631971 0.0 0.0 0.0 16.28999089631971 0.0 0.0 0.0 34.28971787722196" Properties=species:S:1:pos:R:3:initial_magmoms:R:1 pbc="T T T"
Si       1.34789976       1.30543892       1.53642025       0.00000000
Si      -1.68028092      -1.14424218       1.40375325       0.00000000
Si      -1.18985418       1.51736204      -1.57863091       0.00000000
Si       1.52687799      -1.18988676      -1.58514596       0.00000000
Si      -2.64609873      -2.72932434      -0.07265995       0.00000000
Si      -2.76079662       2.68225343      -0.08479852       0.00000000
Si      -3.57387939       0.42381597       1.41270288       0.00000000
Si       2.83665915       2.66412266      -0.02376279       0.00000000
Si      -2.53697202       0.16770447      -2.97583483       0.00000000
Si       0.17640441      -2.54545911      -2.97213154       0.00000000
