10
Lattice="16.28999089631971 0.0 0.0 0.0 16.28999089631971 0.0 0.0 0.0 34.28971787722196" Properties=species:S:1:pos:R:3:initial_magmoms:R:1 pbc="T T T"
Si      -0.82256355      -1.58697180      -1.47805912       0.00000000
Si       2.22405089      -0.12598686      -0.82775425       0.00000000
Si      -0.70465327       2.03962203      -1.00825543       0.00000000
Si       0.24974036      -0.68978376       2.35217309       0.00000000
Si       2.76592145       2.07469440      -0.22744383       0.00000000
Si      -0.22400379      -0.41796882      -3.49055807       0.00000000
Si       2.04196127       0.78429834       3.01554234       0.00000000
Si       1.24536398       3.16384380      -1.64666175       0.00000000
Si      -0.03845906      -3.69952416      -0.80714612       0.00000000
Si      -1.30990889       1.58478894      -3.20513030       0.00000000
