10
Lattice="16.28999089631971 0.0 0.0 0.0 16.28999089631971 0.0 0.0 0.0 34.28971787722196" Properties=species:S:1:pos:R:3:initial_magmoms:R:1 pbc="T T T"
Si      -1.34708526      -1.35711990      -1.37498417       0.00000000
Si       1.36681245       1.36223496      -1.37697297       0.00000000
Si       1.31168709      -1.39253436       1.42864760       0.00000000
Si      -1.49630166       1.20415680       1.45679948       0.00000000
Si      -2.70689627       2.68675857      -0.02146538       0.00000000
Si       2.70301599       2.72223819       0.00380616       0.00000000
Si      -2.72100015      -2.71458189       0.00682366       0.00000000
Si       2.72948724      -2.70624141      -0.00106298       0.00000000
Si      -2.70870934       0.00205254      -2.73851556       0.00000000
Si       0.00848709      -2.71329498      -2.73868701       0.00000000
