10
Lattice="16.28999089631971 0.0 0.0 0.0 16.28999089631971 0.0 0.0 0.0 34.28971787722196" Properties=species:S:1:pos:R:3:initial_magmoms:R:1 pbc="T T T"
Si      -0.02076975      -2.04634980       1.12072577       0.00000000
Si       0.70319043      -0.75595374      -2.12226040       0.00000000
Si       1.81943010       1.47911571       0.90943241       0.00000000
Si      -1.79272916       1.79784585       0.05582369       0.00000000
Si      -0.69090777      -0.86099166       2.98489627       0.00000000
Si       0.00804726       3.04323264       1.04230514       0.00000000
Si      -0.81736704       0.33319566      -3.54147833       0.00000000
Si      -3.49263206       0.60022134       1.16317646       0.00000000
Si       2.42501085       0.48654972      -2.99016794       0.00000000
Si      -2.06273102      -2.83064814      -1.89481658       0.00000000
