10
Lattice="16.28999089631971 0.0 0.0 0.0 16.28999089631971 0.0 0.0 0.0 34.28971787722196" Properties=species:S:1:pos:R:3:initial_magmoms:R:1 pbc="T T T"
Si       1.73490129      -1.56594141      -0.07204274       0.00000000
Si       0.04266351       1.70288722      -1.61388076       0.00000000
Si       0.33633963       1.14370461       2.05296085       0.00000000
Si      -1.76348861      -1.41203349      -0.78588648       0.00000000
Si      -2.03641616       1.25422104       2.31510589       0.00000000
Si       1.16286165       0.27171720      -3.21133674       0.00000000
Si       0.61346511      -3.42759519       0.80868916       0.00000000
Si       3.47281623      -0.66907917       1.12384613       0.00000000
Si      -2.20949741       2.46242476      -1.71273808       0.00000000
Si       1.11104316       3.29029397       1.37011502       0.00000000
