10
Lattice="16.28999089631971 0.0 0.0 0.0 16.28999089631971 0.0 0.0 0.0 34.28971787722196" Properties=species:S:1:pos:R:3:initial_magmoms:R:1 pbc="T T T"
Si      -1.93236120      -0.14960736       1.32368672       0.00000000
Si       0.95301224      -2.16428940      -0.25912754       0.00000000
Si       1.76348861       1.41203349       0.78588648       0.00000000
Si      -0.84586802       0.26482653      -2.38666857       0.00000000
Si      -0.83512966       0.29212857       3.33087077       0.00000000
Si       2.37695372      -2.01556170       1.59457564       0.00000000
Si       3.49838990      -0.15390792       0.71384375       0.00000000
Si       0.72130328      -1.55551581       3.19758656       0.00000000
Si      -2.59686288      -2.42725887       0.84366469       0.00000000
Si       1.80615212       3.11492071      -0.82799428       0.00000000
