10
Lattice="16.28999089631971 0.0 0.0 0.0 16.28999089631971 0.0 0.0 0.0 34.28971787722196" Properties=species:S:1:pos:R:3:initial_magmoms:R:1 pbc="T T T"
Si      -1.15082238       2.15842500       0.12378595       0.00000000
Si      -1.22595186      -2.10820293      -0.31279098       0.00000000
Si       1.35413068       0.29773233      -2.06616240       0.00000000
Si       0.84586802      -0.26482653       2.38666857       0.00000000
Si      -2.04157587      -1.51671303      -2.42058112       0.00000000
Si       1.79888026      -2.42911593       2.12754102       0.00000000
Si      -0.33479244      -0.48107628      -3.66547002       0.00000000
Si      -2.99898804      -1.92451689       1.18011559       0.00000000
Si      -1.08649317      -0.41443389       3.71035529       0.00000000
Si       0.39985923       3.60963172       1.45981698       0.00000000
