10
Lattice="10.86 0.0 0.0 0.0 10.86 0.0 0.0 0.0 10.86" Properties=species:S:1:pos:R:3:initial_magmoms:R:1 pbc="T T T"
Si      -1.18393548       1.30965084      -1.33254372       0.00000000
Si       1.65941886      -1.25577438      -0.88229898       0.00000000
Si      -1.18393548      -1.40534916       1.38245628       0.00000000
Si       1.53106452       1.30965084       1.38245628       0.00000000
Si      -2.54143548       2.66715084       0.02495628       0.00000000
Si       0.12019848      -2.66392542      -2.55530370       0.00000000
Si      -2.54143548      -0.04784916      -2.69004372       0.00000000
Si      -2.54143548      -0.04784916       2.73995628       0.00000000
Si      -2.54143548      -2.76284916       0.02495628       0.00000000
Si       0.17356452       2.66715084      -2.69004372       0.00000000
