10
Lattice="10.86 0.0 0.0 0.0 10.86 0.0 0.0 0.0 10.86" Properties=species:S:1:pos:R:3:initial_magmoms:R:1 pbc="T T T"
Si       1.41822912      -1.43787486      -1.23738840       0.00000000
Si       1.41822912       1.27712514       1.47761160       0.00000000
Si      -1.29677088      -1.43787486       1.47761160       0.00000000
Si      -2.49760452       2.69464836       0.02088378       0.00000000
Si       0.03289494       2.77313358      -2.53082526       0.00000000
Si       0.38891832      -2.90624460      -2.38443246       0.00000000
Si       2.77572912      -0.08037486      -2.59488840       0.00000000
Si       2.77572912       2.63462514       0.12011160       0.00000000
Si       0.06072912       2.63462514       2.83511160       0.00000000
Si      -2.65427088      -0.08037486       2.83511160       0.00000000
