10
Lattice="10.86 0.0 0.0 0.0 10.86 0.0 0.0 0.0 10.86" Properties=species:S:1:pos:R:3:initial_magmoms:R:1 pbc="T T T"
Si       1.39568376      -1.19423076      -1.31195316       0.00000000
Si      -1.31931624      -1.19423076       1.40304684       0.00000000
Si      -1.31931624       1.52076924      -1.31195316       0.00000000
Si      -2.33292348       0.34201398       2.71769328       0.00000000
Si       0.03818376      -2.55173076      -2.66945316       0.00000000
Si      -2.67681624      -2.55173076       0.04554684       0.00000000
Si       2.75318376      -2.55173076       0.04554684       0.00000000
Si       0.03818376      -2.55173076       2.76054684       0.00000000
Si      -2.67681624       0.16326924      -2.66945316       0.00000000
Si       2.75318376       0.16326924      -2.66945316       0.00000000
