10
Lattice="16.28999089631971 0.0 0.0 0.0 16.28999089631971 0.0 0.0 0.0 34.40246978574605" Properties=species:S:1:pos:R:3:initial_magmoms:R:1 pbc="T T T"
Si      -1.53207680       1.32983415       1.16239130       0.00000000
Si      -1.39880831      -1.82689092      -0.46835549       0.00000000
Si       1.64156448      -0.76095477       1.52915623       0.00000000
Si       1.19994258       0.44111691      -2.07199311       0.00000000
Si       2.28122391      -2.37452814      -0.07599510       0.00000000
Si       0.20195039      -3.56527827      -0.41310509       0.00000000
Si      -2.78502215      -0.27378603       2.45258784       0.00000000
Si       3.13270221      -0.99437418      -1.76498530       0.00000000
Si       3.43238934       0.79708599       1.38394333       0.00000000
Si       1.37372430       2.83504644      -2.23420084       0.00000000
