10
Lattice="16.28999089631971 0.0 0.0 0.0 16.28999089631971 0.0 0.0 0.0 34.40246978574605" Properties=species:S:1:pos:R:3:initial_magmoms:R:1 pbc="T T T"
Si       1.29575547      -1.35668007      -1.39557137       0.00000000
Si      -0.91661875      -1.71843210       1.34047376       0.00000000
Si       1.74490335       1.05730245       1.37268137       0.00000000
Si      -1.84221981       1.23305526      -1.55406364       0.00000000
Si      -2.31128627      -0.32521356       2.75575431       0.00000000
Si       0.39612393       2.43209278       2.75030840       0.00000000
Si      -0.39113919      -2.12605677      -3.02308432       0.00000000
Si      -2.64263615      -1.03125474      -2.49614140       0.00000000
Si      -2.68376840       2.76630983       0.06364460       0.00000000
Si      -2.21982445      -3.21256719      -0.00577962       0.00000000
