10
Lattice="16.28999089631971 0.0 0.0 0.0 16.28999089631971 0.0 0.0 0.0 34.40246978574605" Properties=species:S:1:pos:R:3:initial_magmoms:R:1 pbc="T T T"
Si      -0.84154859       1.53325457       1.61770824       0.00000000
Si      -0.28745986       0.98038107      -2.33737391       0.00000000
Si      -0.80041634      -2.26431000      -0.94207776       0.00000000
Si       1.84221981      -1.23305526       1.55406364       0.00000000
Si      -2.25307709       1.53775061      -1.23917765       0.00000000
Si      -1.84582709      -0.16549011       2.96430220       0.00000000
Si       1.45108062      -3.35911203      -1.46902068       0.00000000
Si       0.95242091       2.64516761       2.80002688       0.00000000
Si      -2.23424585      -3.24574992       0.62240983       0.00000000
Si      -3.53303126      -1.08893763       1.55131144       0.00000000
