10
Lattice="16.28999089631971 0.0 0.0 0.0 16.28999089631971 0.0 0.0 0.0 34.40246978574605" Properties=species:S:1:pos:R:3:initial_magmoms:R:1 pbc="T T T"
Si       1.67097933       1.01527425       1.26265219       0.00000000
Si      -1.00962162      -1.89590025       1.16875404       0.00000000
Si      -1.92132405       1.55181798       0.11125731       0.00000000
Si       0.33348888       0.71752563      -2.46362730       0.00000000
Si      -2.05820892       0.96932016      -2.15400490       0.00000000
Si       0.17977644       2.15146917       2.63046763       0.00000000
Si       2.41347753       2.68266978      -0.27005579       0.00000000
Si      -2.51317233      -0.60593913       2.61461841       0.00000000
Si      -1.10947932       3.49596432       1.21415156       0.00000000
Si       2.90743920      -0.56914002       2.58097621       0.00000000
