10
Lattice="16.28999089631971 0.0 0.0 0.0 16.28999089631971 0.0 0.0 0.0 34.40246978574605" Properties=species:S:1:pos:R:3:initial_magmoms:R:1 pbc="T T T"
Si      -1.29614643       1.34711784      -1.35244441       0.00000000
Si      -1.37665161      -1.32668366       1.35506932       0.00000000
Si       1.33929864       1.38789171       1.35169788       0.00000000
Si       1.50355071      -1.28996112      -1.44586437       0.00000000
Si       0.59184828       2.15775711      -2.50336110       0.00000000
Si       2.51317233       0.60593913      -2.61461841       0.00000000
Si      -0.02002041      -2.68177642       2.71231632       0.00000000
Si      -2.73471633      -2.66368704      -0.02300494       0.00000000
Si       2.72699487      -2.68060734      -0.00648143       0.00000000
Si       2.69591355       0.03241710       2.71241952       0.00000000
