10
Lattice="16.28999089631971 0.0 0.0 0.0 16.28999089631971 0.0 0.0 0.0 34.40246978574605" Properties=species:S:1:pos:R:3:initial_magmoms:R:1 pbc="T T T"
Si       1.43334081      -0.58280963       1.72077810       0.00000000
Si      -0.03909600      -1.53577463      -1.80705954       0.00000000
Si       0.39508137       2.20532880      -0.78740417       0.00000000
Si      -2.02129578      -0.30715025       1.24210187       0.00000000
Si      -2.39922378      -1.44924215      -2.13085577       0.00000000
Si      -1.19617470       2.31921219      -2.51096887       0.00000000
Si      -2.19507750      -2.70107978       1.40430960       0.00000000
Si      -3.08192791       0.84967988      -1.97023055       0.00000000
Si       1.20805011       1.03095663       3.44578770       0.00000000
Si       3.65891319      -0.59885528       1.14071773       0.00000000
