10
Lattice="16.28999089631971 0.0 0.0 0.0 16.28999089631971 0.0 0.0 0.0 34.40246978574605" Properties=species:S:1:pos:R:3:initial_magmoms:R:1 pbc="T T T"
Si       2.19910113      -0.65381544       0.59884413       0.00000000
Si      -0.14934672       2.34357714       0.32957584       0.00000000
Si      -0.25242984      -0.20486304      -2.37002187       0.00000000
Si      -1.94383683      -0.76633047       1.27777725       0.00000000
Si      -0.51243453       2.04786477       2.69605426       0.00000000
Si      -3.53509290      -0.65244708      -0.44578745       0.00000000
Si      -2.31471126      -1.42886106      -2.39262431       0.00000000
Si       0.95270436       0.34246467       3.64367082       0.00000000
Si       3.43041336      -0.92607021      -1.37943660       0.00000000
Si       2.91046914       0.72449775       2.36424225       0.00000000
