10
Lattice="16.28999089631971 0.0 0.0 0.0 16.28999089631971 0.0 0.0 0.0 34.40246978574605" Properties=species:S:1:pos:R:3:initial_magmoms:R:1 pbc="T T T"
Si       1.34974053       1.36000323       1.34637581       0.00000000
Si      -1.35749457       1.35620766      -1.35769423       0.00000000
Si       1.35741312      -1.35886293      -1.35638693       0.00000000
Si      -1.37687967      -1.35925389       1.37747566       0.00000000
Si      -0.03640815       2.69928558       2.67672006       0.00000000
Si       2.71559187       2.71103067       0.00271780       0.00000000
Si       0.00008145       2.71316466      -2.71518204       0.00000000
Si       2.71464705      -0.00094482      -2.71411557       0.00000000
Si      -2.71233387      -2.71710684       0.00065365       0.00000000
Si      -2.71531494      -0.00127062      -2.71501003       0.00000000
