10
Lattice="16.28999089631971 0.0 0.0 0.0 16.28999089631971 0.0 0.0 0.0 34.40246978574605" Properties=species:S:1:pos:R:3:initial_magmoms:R:1 pbc="T T T"
Si       1.13248080      -1.29968136       1.58506028       0.00000000
Si      -1.34974053      -1.36000323      -1.34637581       0.00000000
Si      -1.38614868       1.33928235       1.33034425       0.00000000
Si       1.36585134       1.35102744      -1.34365801       0.00000000
Si       1.73899008       0.82948680       2.72209694       0.00000000
Si      -2.35033749      -0.38273355       2.67310780       0.00000000
Si       2.69537598      -2.68195302       0.02187998       0.00000000
Si      -2.70723510      -0.00379557      -2.70407004       0.00000000
Si       0.00689067       2.71138905      -2.70486130       0.00000000
Si      -0.09119142       2.84933277       2.56126531       0.00000000
