10
Lattice="16.28999089631971 0.0 0.0 0.0 16.28999089631971 0.0 0.0 0.0 34.40246978574605" Properties=species:S:1:pos:R:3:initial_magmoms:R:1 pbc="T T T"
Si       1.71118305       0.89443503      -1.53916736       0.00000000
Si      -0.86998374      -1.77596838      -1.52175970       0.00000000
Si      -1.77163524       1.81138284      -0.45111984       0.00000000
Si       0.03953583       0.22239108       2.68267169       0.00000000
Si       3.19362192      -0.54856575       1.79587873       0.00000000
Si      -2.14791795      -0.52514073      -3.09312779       0.00000000
Si      -1.91770767      -3.29591009      -0.05215417       0.00000000
Si       2.31769233       3.02360319      -0.40213069       0.00000000
Si       0.57870225       2.19411639      -3.12422764       0.00000000
Si       2.07948366       1.32804225       3.08879307       0.00000000
