10
Lattice="16.28999089631971 0.0 0.0 0.0 16.28999089631971 0.0 0.0 0.0 34.40246978574605" Properties=species:S:1:pos:R:3:initial_magmoms:R:1 pbc="T T T"
Si      -1.07408115      -0.98990645       1.94886660       0.00000000
Si       1.28467827      -1.36402259      -1.57714771       0.00000000
Si       1.50907302       1.29265227       1.46152094       0.00000000
Si      -1.40844969       1.34904337      -1.56139137       0.00000000
Si       0.87101001      -2.20002539       2.78106281       0.00000000
Si      -1.53656728       1.07741087       3.25853495       0.00000000
Si       2.55679695       2.81259398      -0.00808458       0.00000000
Si       2.53573398      -2.86721492      -0.24566817       0.00000000
Si       2.65743657      -0.00646286      -2.95331607       0.00000000
Si      -2.69363735       2.91668708      -0.25330553       0.00000000
