10
Lattice="16.28999089631971 0.0 0.0 0.0 16.28999089631971 0.0 0.0 0.0 34.40246978574605" Properties=species:S:1:pos:R:3:initial_magmoms:R:1 pbc="T T T"
Si      -1.81576485       1.25493273       0.71268196       0.00000000
Si       2.03994783       1.10565117       0.40612138       0.00000000
Si       0.14353119      -1.87277985       1.67997675       0.00000000
Si      -0.03953583      -0.22239108      -2.68267169       0.00000000
Si       3.15408609      -0.77095683      -0.88679296       0.00000000
Si       2.34888768      -2.38720176       0.78231260       0.00000000
Si      -3.74298588      -0.22770162      -0.34935728       0.00000000
Si      -1.67383008       1.45495764       3.11638387       0.00000000
Si       2.18416320       3.15727893      -0.65750037       0.00000000
Si      -2.93518107      -2.57707800      -0.60761676       0.00000000
