10
Lattice="16.28999089631971 0.0 0.0 0.0 16.28999089631971 0.0 0.0 0.0 34.40246978574605" Properties=species:S:1:pos:R:3:initial_magmoms:R:1 pbc="T T T"
Si       1.17801135      -0.21466962       2.08682058       0.00000000
Si       0.39016179       1.88136468      -1.50094619       0.00000000
Si       1.06539858      -1.75234788      -1.36522837       0.00000000
Si      -2.55979431      -0.04043178       0.11332180       0.00000000
Si      -1.51231473       3.18112749      -0.81513257       0.00000000
Si      -0.49588389      -1.15318539       3.50101887       0.00000000
Si      -2.98292706       1.41020901      -1.74110997       0.00000000
Si       3.30657678      -0.85937895      -1.60408486       0.00000000
Si      -3.22333488      -2.21685723      -0.51173702       0.00000000
Si      -1.44461349      -3.67982955       0.13286241       0.00000000
