10
Lattice="16.28999089631971 0.0 0.0 0.0 16.28999089631971 0.0 0.0 0.0 34.40246978574605" Properties=species:S:1:pos:R:3:initial_magmoms:R:1 pbc="T T T"
Si       1.41421635      -0.81295245       1.63838414       0.00000000
Si       1.44438543      -0.33879942      -1.92100058       0.00000000
Si      -1.25229375      -1.81201815       1.04992956       0.00000000
Si      -1.09564911       2.15868564      -1.42144204       0.00000000
Si      -2.25205992      -1.94197977      -0.98246628       0.00000000
Si       0.14942817      -1.84884984      -3.15192164       0.00000000
Si       3.18057363      -2.00257857       0.66713307       0.00000000
Si       0.70962498      -0.38773458       3.78410178       0.00000000
Si       2.33390088       3.13395165       0.07055950       0.00000000
Si      -2.78762625      -1.10372895       2.64176713       0.00000000
