10
Lattice="16.28999089631971 0.0 0.0 0.0 16.28999089631971 0.0 0.0 0.0 34.40246978574605" Properties=species:S:1:pos:R:3:initial_magmoms:R:1 pbc="T T T"
Si       0.53033724      -2.28680649       0.07234843       0.00000000
Si       0.02915910       0.93752208       2.15731128       0.00000000
Si      -2.34168750       0.29978487      -0.34605464       0.00000000
Si       1.73687238       1.19306331      -1.20625447       0.00000000
Si      -2.06309592       2.50861113      -1.40936677       0.00000000
Si       2.36363013       1.17806022       2.39362198       0.00000000
Si       1.23492861      -2.71202436      -2.07336921       0.00000000
Si      -1.46026818      -3.29712858       0.78671612       0.00000000
Si      -1.16493048       3.05571078       1.92100058       0.00000000
Si      -0.42520158      -0.84475053       3.68120393       0.00000000
