10
Lattice="16.28999089631971 0.0 0.0 0.0 16.28999089631971 0.0 0.0 0.0 34.40246978574605" Properties=species:S:1:pos:R:3:initial_magmoms:R:1 pbc="T T T"
Si       0.82116750       0.11313242      -2.19532603       0.00000000
Si      -1.09365751       1.94565479       0.80794245       0.00000000
Si      -1.82898811      -1.42537241       0.52219538       0.00000000
Si       1.88179962      -1.04369771       1.01700638       0.00000000
Si       1.50387162      -2.18578961      -2.35595125       0.00000000
Si      -3.51804934      -0.25107940      -0.65120471       0.00000000
Si      -1.54684531       1.18799060       3.05232644       0.00000000
Si       1.94884926       0.04590685       3.08174056       0.00000000
Si      -2.16501823      -1.11455921       2.88279097       0.00000000
Si      -1.02893734       0.58584053      -3.60345431       0.00000000
