10
Lattice="16.28999089631971 0.0 0.0 0.0 16.28999089631971 0.0 0.0 0.0 34.40246978574605" Properties=species:S:1:pos:R:3:initial_magmoms:R:1 pbc="T T T"
Si      -1.90247652       1.29976281       0.68581362       0.00000000
Si       2.30759253       0.70073064       0.18147313       0.00000000
Si      -0.61737471      -0.48751083      -2.29509325       0.00000000
Si      -0.39016179      -1.88136468       1.50094619       0.00000000
Si      -3.37308885      -0.47115567      -0.24016378       0.00000000
Si       2.78381439       0.51280920      -2.12786275       0.00000000
Si       0.85131540       0.89257797      -3.42872407       0.00000000
Si       0.67523679      -3.63371256       0.13571782       0.00000000
Si      -2.94995610      -1.92179646       1.61426799       0.00000000
Si      -2.98266642      -0.47467431      -2.59484214       0.00000000
