10
Lattice="16.28999089631971 0.0 0.0 0.0 16.28999089631971 0.0 0.0 0.0 34.40246978574605" Properties=species:S:1:pos:R:3:initial_magmoms:R:1 pbc="T T T"
Si      -0.90917748      -1.83070278       1.18078425       0.00000000
Si       1.43198874       0.12743667      -1.88021991       0.00000000
Si       1.81991880       0.85054977       1.25185635       0.00000000
Si      -1.67547537       1.71525555       0.02478562       0.00000000
Si       0.43813584       2.18867633       2.67736476       0.00000000
Si      -2.30707125      -0.54196830       2.66564039       0.00000000
Si      -1.88307513       2.40430367      -2.23308624       0.00000000
Si      -0.78530832       3.57932255       1.23798182       0.00000000
Si      -2.51388909      -2.93762457      -0.34827708       0.00000000
Si       2.86806627      -1.67907546      -2.18757175       0.00000000
