10
Lattice="16.28999089631971 0.0 0.0 0.0 16.28999089631971 0.0 0.0 0.0 34.40246978574605" Properties=species:S:1:pos:R:3:initial_magmoms:R:1 pbc="T T T"
Si       0.90917748       1.83070278      -1.18078425       0.00000000
Si      -1.39789377       1.28873448       1.48485615       0.00000000
Si       1.30992777      -1.40515911       1.47713967       0.00000000
Si      -1.60471161      -1.10692179      -1.52906132       0.00000000
Si       2.68110594      -2.66341500      -0.00200911       0.00000000
Si      -2.67744069      -2.68045434       0.06547138       0.00000000
Si      -0.76629789       3.54595833      -1.15599863       0.00000000
Si       2.72909628       2.68125255       0.07107210       0.00000000
Si      -2.76561846       2.66150907       0.10242997       0.00000000
Si      -0.04484637       2.66108553       2.85331492       0.00000000
