10
Lattice="16.28999089631971 0.0 0.0 0.0 16.28999089631971 0.0 0.0 0.0 34.40246978574605" Properties=species:S:1:pos:R:3:initial_magmoms:R:1 pbc="T T T"
Si      -1.35127179      -1.34917038      -1.37778528       0.00000000
Si       1.25105571      -1.50319233       1.33147953       0.00000000
Si       1.37275830       1.35755973      -1.37616837       0.00000000
Si      -1.28467827       1.36402259       1.57714771       0.00000000
Si       2.22106005      -0.17414010       3.01534376       0.00000000
Si      -2.69312796       2.71306596       0.01575634       0.00000000
Si      -2.71801745      -2.70902700      -0.00230497       0.00000000
Si      -2.70068815      -0.00283446      -2.73764687       0.00000000
Si       0.01174509       2.71171715      -2.73702762       0.00000000
Si       2.72719035       2.72174039       0.02858847       0.00000000
