10
Lattice="16.28999089631971 0.0 0.0 0.0 16.28999089631971 0.0 0.0 0.0 34.40246978574605" Properties=species:S:1:pos:R:3:initial_magmoms:R:1 pbc="T T T"
Si       1.33931493       1.36091547      -1.36488435       0.00000000
Si      -1.49195223       1.21249728       1.34943763       0.00000000
Si      -1.36738260      -1.36407573      -1.35958637       0.00000000
Si       1.56452418      -1.17911907       1.36932227       0.00000000
Si      -0.11339469      -2.57826717       2.54581859       0.00000000
Si       2.68141545       2.71987614      -0.01025194       0.00000000
Si       2.69830818      -0.00117288      -2.71800305       0.00000000
Si       2.71404432      -2.70928764      -0.00323383       0.00000000
Si      -0.01321119       2.71280628      -2.71961996       0.00000000
Si      -0.01531260      -2.71621089      -2.72030801       0.00000000
