10
Lattice="16.28999089631971 0.0 0.0 0.0 16.28999089631971 0.0 0.0 0.0 34.40246978574605" Properties=species:S:1:pos:R:3:initial_magmoms:R:1 pbc="T T T"
Si       1.44016632      -1.17143019      -1.49354966       0.00000000
Si      -1.25706672       1.54612367      -1.43675115       0.00000000
Si       1.54632825       0.38990508       1.89347859       0.00000000
Si      -1.76319702      -1.34975682       1.55000414       0.00000000
Si       1.50371361       2.66614262       1.58120720       0.00000000
Si       2.74015719      -2.48746671      -0.09574213       0.00000000
Si       0.09806580      -2.53039086      -2.84818207       0.00000000
Si      -2.73320136      -2.67880905      -0.13386008       0.00000000
Si      -2.61149877       0.18194301      -2.84150798       0.00000000
Si       2.81702970       0.18046047      -2.84625553       0.00000000
