10
Lattice="16.28999089631971 0.0 0.0 0.0 16.28999089631971 0.0 0.0 0.0 34.40246978574605" Properties=species:S:1:pos:R:3:initial_magmoms:R:1 pbc="T T T"
Si       1.57007907       1.02135856      -1.42116682       0.00000000
Si      -1.59221718       0.77285624      -1.56011847       0.00000000
Si       0.39939822      -2.35470877      -0.00670849       0.00000000
Si      -0.28548225       1.92174922       1.40145419       0.00000000
Si       0.56133711       3.04924528      -0.52567003       0.00000000
Si      -3.35292672       1.37491347      -0.08765754       0.00000000
Si       1.79536977      -0.59240770      -3.14617643       0.00000000
Si       1.91964618       0.02889031       3.20861694       0.00000000
Si       1.62554652      -2.72950909      -2.05365658       0.00000000
Si       3.56659776       1.36349743      -0.38768165       0.00000000
