10
Lattice="16.28999089631971 0.0 0.0 0.0 16.28999089631971 0.0 0.0 0.0 34.40246978574605" Properties=species:S:1:pos:R:3:initial_magmoms:R:1 pbc="T T T"
Si       0.04261464      -2.27623754       0.31227139       0.00000000
Si       1.40463783       0.35181513      -1.81252954       0.00000000
Si      -0.15224634       1.56225987       1.84015473       0.00000000
Si       2.21503275       1.67259204       1.81063740       0.00000000
Si       3.09567015       1.21772637      -0.42180892       0.00000000
Si      -1.50371361      -2.66614262      -1.58120720       0.00000000
Si      -0.07179003       1.62298899      -3.05807165       0.00000000
Si      -0.70490088      -2.31012074       2.68690320       0.00000000
Si      -0.95744475      -0.05398506       3.50926029       0.00000000
Si      -1.63468521       3.00526065      -1.49489136       0.00000000
