10
Lattice="16.28999089631971 0.0 0.0 0.0 16.28999089631971 0.0 0.0 0.0 34.40246978574605" Properties=species:S:1:pos:R:3:initial_magmoms:R:1 pbc="T T T"
Si      -0.25254387       2.25613568       0.82235710       0.00000000
Si       0.74751552       0.03388320      -2.37463180       0.00000000
Si      -1.65711654      -1.07959110       1.73963066       0.00000000
Si       2.32769439      -1.18241358       0.80343573       0.00000000
Si       1.22494284       2.04935042       2.71060651       0.00000000
Si       0.70490088       2.31012074      -2.68690320       0.00000000
Si      -1.26394110      -3.35284431      -1.21402943       0.00000000
Si       3.08925189       0.62477200       2.09896466       0.00000000
Si       1.41970608      -2.44500261       2.54021098       0.00000000
Si      -0.34712361      -1.40684091       3.69396726       0.00000000
