10
Lattice="16.28999089631971 0.0 0.0 0.0 16.28999089631971 0.0 0.0 0.0 34.40246978574605" Properties=species:S:1:pos:R:3:initial_magmoms:R:1 pbc="T T T"
Si       0.24304680      -2.18544359       0.72902314       0.00000000
Si       1.23131223      -0.27225477      -1.97828073       0.00000000
Si       0.71136801       1.37831319       1.76539813       0.00000000
Si      -2.19910113       0.65381544      -0.59884413       0.00000000
Si      -1.24639677       0.99628011       3.04482669       0.00000000
Si       2.59944417       1.62735471      -2.12796596       0.00000000
Si      -2.34844785       2.99739258      -0.26926828       0.00000000
Si      -0.34075422      -3.72844610      -0.99491998       0.00000000
Si      -0.24617448      -0.06546951      -3.86653014       0.00000000
Si      -2.45153097       0.44895240      -2.96886600       0.00000000
