10
Lattice="16.28999089631971 0.0 0.0 0.0 16.28999089631971 0.0 0.0 0.0 34.40246978574605" Properties=species:S:1:pos:R:3:initial_magmoms:R:1 pbc="T T T"
Si       0.30944484       1.27244448       1.90878770       0.00000000
Si       1.90391004      -0.13426218      -1.40998601       0.00000000
Si      -1.87836732       0.79980642      -1.22115075       0.00000000
Si      -0.40550697      -2.13978598       0.96729478       0.00000000
Si      -0.27262944      -3.23788904      -1.12420454       0.00000000
Si       1.74109149      -2.41088253      -1.94632082       0.00000000
Si       2.51502939       0.85198329       2.60942879       0.00000000
Si       1.51050654       1.48235742      -3.18388155       0.00000000
Si      -1.19679372       0.57417363       3.60022048       0.00000000
Si       0.06704964       3.58283889       1.37479227       0.00000000
