10
Lattice="16.28999089631971 0.0 0.0 0.0 16.28999089631971 0.0 0.0 0.0 34.40246978574605" Properties=species:S:1:pos:R:3:initial_magmoms:R:1 pbc="T T T"
Si      -0.06704964      -1.08960456      -2.06473418       0.00000000
Si       1.59221718      -0.77285624       1.56011847       0.00000000
Si      -1.76070954       0.60205722       1.47246093       0.00000000
Si       0.51214131       2.27174638      -0.63881982       0.00000000
Si       3.16229625       0.24850232       0.13895165       0.00000000
Si       2.15355429       2.27638903       1.03444844       0.00000000
Si       1.30673493       1.14889297       2.96157267       0.00000000
Si      -0.72503206       2.36399665       2.55899474       0.00000000
Si      -1.94884926      -0.04590685      -3.08174056       0.00000000
Si      -3.49569458       1.14208375      -0.02941413       0.00000000
