10
Lattice="16.28999089631971 0.0 0.0 0.0 16.28999089631971 0.0 0.0 0.0 34.40246978574605" Properties=species:S:1:pos:R:3:initial_magmoms:R:1 pbc="T T T"
Si      -1.36813194      -1.89960948       0.14968523       0.00000000
Si       1.19391039      -1.36409202      -1.63769609       0.00000000
Si      -1.60480935       1.82303019      -0.32696126       0.00000000
Si       1.50079770       0.43350948       1.93063328       0.00000000
Si       0.15868089       2.98830276      -1.41304783       0.00000000
Si       0.49617711      -3.32418790      -0.46195662       0.00000000
Si       0.32685885       0.03375288      -3.43718708       0.00000000
Si       0.59624658       2.51294427       2.63189362       0.00000000
Si      -2.59944417      -1.62735471       2.12796596       0.00000000
Si      -2.84561865      -1.69282422      -1.73856418       0.00000000
