10
Lattice="16.28999089631971 0.0 0.0 0.0 16.28999089631971 0.0 0.0 0.0 34.40246978574605" Properties=species:S:1:pos:R:3:initial_magmoms:R:1 pbc="T T T"
Si       1.59485616      -1.07303859      -1.37238409       0.00000000
Si      -1.76349024      -1.16527257       1.08608658       0.00000000
Si      -0.91079019       1.59747885      -1.51425996       0.00000000
Si       1.25141409       0.69146163       1.92867234       0.00000000
Si      -0.15868089      -2.98830276       1.41304783       0.00000000
Si       0.74596797       2.95112898       1.41937789       0.00000000
Si       0.16817796      -2.95454988      -2.02413925       0.00000000
Si      -3.31323939      -1.18827405      -0.70170757       0.00000000
Si      -3.16902402       0.86335371      -1.76532932       0.00000000
Si       0.36466794       1.38077298      -3.45875744       0.00000000
