10
Lattice="16.28999089631971 0.0 0.0 0.0 16.28999089631971 0.0 0.0 0.0 34.40246978574605" Properties=species:S:1:pos:R:3:initial_magmoms:R:1 pbc="T T T"
Si       1.29718899      -0.58440375       1.87638056       0.00000000
Si      -1.99919025      -1.30090311       0.35207507       0.00000000
Si       1.34389242      -0.84791079      -1.83358386       0.00000000
Si      -0.81313164       2.29514697      -0.04107657       0.00000000
Si       3.54494835      -0.15799671       1.12527101       0.00000000
Si      -0.20585673      -0.87091227      -3.62137801       0.00000000
Si      -1.63077561       2.56376907       2.19869748       0.00000000
Si       1.06062561      -2.91998250       2.38674148       0.00000000
Si      -2.36227806      -1.59661548       2.71855349       0.00000000
Si      -3.91963464      -0.52160580      -0.91111552       0.00000000
