10
Lattice="16.28999089631971 0.0 0.0 0.0 16.28999089631971 0.0 0.0 0.0 34.40246978574605" Properties=species:S:1:pos:R:3:initial_magmoms:R:1 pbc="T T T"
Si       0.90455112      -2.07943479      -0.70126034       0.00000000
Si      -2.24775936      -0.42640704       0.75110954       0.00000000
Si       1.11861801       0.22125078       2.20963747       0.00000000
Si       0.81384840       1.16682012      -2.11626911       0.00000000
Si       0.96168015       2.18111697       1.06602993       0.00000000
Si       3.12996060      -1.29239973      -0.97276478       0.00000000
Si      -0.59624658      -2.51294427      -2.63189362       0.00000000
Si      -3.54494835       0.15799671      -1.12527101       0.00000000
Si      -2.20105593      -0.68991408      -2.95885487       0.00000000
Si      -2.54371608       0.69253677       2.80249556       0.00000000
