10
Lattice="16.28999089631971 0.0 0.0 0.0 16.28999089631971 0.0 0.0 0.0 34.40246978574605" Properties=species:S:1:pos:R:3:initial_magmoms:R:1 pbc="T T T"
Si       1.36275624       1.33745787       1.37764423       0.00000000
Si      -1.35197226      -1.37469681       1.37791945       0.00000000
Si       1.27180917      -1.40022324      -1.42988441       0.00000000
Si      -1.34242632       1.44638910      -1.48211771       0.00000000
Si      -0.47656395      -2.19159144      -2.86172086       0.00000000
Si      -2.32562556      -0.43978113      -2.79171180       0.00000000
Si      -2.71360449       2.70464499      -0.00296893       0.00000000
Si       0.00755856       2.69654886       2.73547607       0.00000000
Si      -2.71026504      -2.72279205       0.03880257       0.00000000
Si       2.73074157       2.70428661       0.01859455       0.00000000
