10
Lattice="16.28999089631971 0.0 0.0 0.0 16.28999089631971 0.0 0.0 0.0 34.40246978574605" Properties=species:S:1:pos:R:3:initial_magmoms:R:1 pbc="T T T"
Si      -1.35490446      -1.35672894       1.35700618       0.00000000
Si      -1.35772263       1.35716877      -1.35752222       0.00000000
Si       1.35762489      -1.35782037      -1.35796945       0.00000000
Si       1.35837423       1.35957969       1.35759102       0.00000000
Si       0.00579924       2.70775638       2.71487242       0.00000000
Si      -2.71306692      -0.00110772      -2.71483802       0.00000000
Si      -0.00179190      -2.71231758       2.71593890       0.00000000
Si      -2.71445157       2.71397916      -0.00010321       0.00000000
Si       0.00052128       2.71492398      -2.71442519       0.00000000
Si       2.70914103       0.00338832       2.72034242       0.00000000
