10
Lattice="16.28999089631971 0.0 0.0 0.0 16.28999089631971 0.0 0.0 0.0 34.40246978574605" Properties=species:S:1:pos:R:3:initial_magmoms:R:1 pbc="T T T"
Si      -0.45644580       1.13290434       1.98805104       0.00000000
Si       0.44066079      -2.24891595       0.66678904       0.00000000
Si       2.11486554       0.64728315      -0.93729581       0.00000000
Si      -2.19134709      -0.21968694      -1.06228006       0.00000000
Si      -1.48419819      -2.27962260       2.01354328       0.00000000
Si      -1.37370312      -0.48830904      -3.30205410       0.00000000
Si      -1.92513591      -0.24718446       3.12168185       0.00000000
Si       1.47605319       0.75313557       3.28891235       0.00000000
Si      -2.98224288      -2.15948385       0.22495788       0.00000000
Si       0.73661751      -3.36785976      -1.38459698       0.00000000
