10
Lattice="16.28999089631971 0.0 0.0 0.0 16.28999089631971 0.0 0.0 0.0 34.40246978574605" Properties=species:S:1:pos:R:3:initial_magmoms:R:1 pbc="T T T"
Si       1.57405383       1.47771477      -0.84678286       0.00000000
Si      -1.93249899       0.37976877      -1.30086132       0.00000000
Si      -0.47622186       0.18792144       2.30933588       0.00000000
Si       1.08194922      -2.11776516       0.15622170       0.00000000
Si       1.48427964      -1.30274388       2.72939027       0.00000000
Si      -2.78381439      -0.51280920       2.12786275       0.00000000
Si      -3.40118910      -1.00032003      -0.16723050       0.00000000
Si       3.21409845      -1.40066307       0.99522960       0.00000000
Si       3.58555932       0.79632036       0.13375688       0.00000000
Si      -1.47605319      -0.75313557      -3.28891235       0.00000000
