10
Lattice="16.28999089631971 0.0 0.0 0.0 16.28999089631971 0.0 0.0 0.0 34.40246978574605" Properties=species:S:1:pos:R:3:initial_magmoms:R:1 pbc="T T T"
Si       0.92600505       0.99733896       1.95609112       0.00000000
Si       1.72981881      -0.09791919      -1.73416067       0.00000000
Si      -1.35167904      -1.95080895      -0.70466618       0.00000000
Si      -1.96050150       1.49066532      -0.42005439       0.00000000
Si      -0.40233042      -0.81502128      -2.57316857       0.00000000
Si      -1.48427964       1.30274388      -2.72939027       0.00000000
Si       1.70035020      -0.87184080       3.16202294       0.00000000
Si      -0.95055408       2.02989690       2.94832771       0.00000000
Si      -1.40090742       3.39511293       0.92948645       0.00000000
Si       2.10127968       2.09906424      -2.59563339       0.00000000
