10
Lattice="16.28999089631971 0.0 0.0 0.0 16.28999089631971 0.0 0.0 0.0 34.40246978574605" Properties=species:S:1:pos:R:3:initial_magmoms:R:1 pbc="T T T"
Si       1.28058948      -1.37034738       1.44123379       0.00000000
Si      -1.81991880      -0.85054977      -1.25185635       0.00000000
Si      -1.38178296       1.33812656       1.42550842       0.00000000
Si       1.76124222       1.00134630      -1.48949502       0.00000000
Si      -0.38793006      -0.72311310      -3.13207626       0.00000000
Si       2.74481613      -2.55533085       0.13081546       0.00000000
Si      -2.60522712       2.72877278      -0.01387452       0.00000000
Si      -3.49539417       0.86470578      -1.22707073       0.00000000
Si      -2.72909628      -2.68125255      -0.07107210       0.00000000
Si       2.73856077       2.68573297      -0.06242676       0.00000000
