10
Lattice="16.28999089631971 0.0 0.0 0.0 16.28999089631971 0.0 0.0 0.0 34.40246978574605" Properties=species:S:1:pos:R:3:initial_magmoms:R:1 pbc="T T T"
Si       1.27226529      -1.34570128       1.49164720       0.00000000
Si      -0.97731855      -1.68438667      -1.42706826       0.00000000
Si       1.92505446       0.87357406      -1.16709481       0.00000000
Si      -1.42672707       1.36980004       1.46077441       0.00000000
Si      -1.03988844      -0.11687586      -3.41415603       0.00000000
Si       1.19006595       0.99208381      -3.42939633       0.00000000
Si       2.62376514      -2.69521375       0.13134182       0.00000000
Si      -2.73856077      -2.68573297       0.06242676       0.00000000
Si       2.63329479       0.00479578       2.84542643       0.00000000
Si       2.73227283       2.78430961       0.10147358       0.00000000
