10
Lattice="16.28999089631971 0.0 0.0 0.0 16.28999089631971 0.0 0.0 0.0 34.40246978574605" Properties=species:S:1:pos:R:3:initial_magmoms:R:1 pbc="T T T"
Si       1.83363777       0.82365498      -1.24805350       0.00000000
Si       1.32305751       0.68911587       1.84524630       0.00000000
Si      -0.88262478      -2.00348967      -1.05883981       0.00000000
Si      -1.89439668       1.60243101       0.05284222       0.00000000
Si       0.38074617       1.99897848      -2.60430282       0.00000000
Si      -2.30855364      -0.76406616      -2.58575988       0.00000000
Si      -0.88754436       3.39783336      -1.13345881       0.00000000
Si       2.70617366       2.49766425       0.44348249       0.00000000
Si       2.99070783      -1.01562123       2.26378698       0.00000000
Si      -3.58542900       0.73651977      -1.33787840       0.00000000
