10
Lattice="16.28999089631971 0.0 0.0 0.0 16.28999089631971 0.0 0.0 0.0 34.40246978574605" Properties=species:S:1:pos:R:3:initial_magmoms:R:1 pbc="T T T"
Si      -1.33641531      -1.36435266       1.37721420       0.00000000
Si       1.37705886       1.35505107       1.37628533       0.00000000
Si       1.47173634      -1.29709125      -1.36835556       0.00000000
Si      -1.43285211       1.33157718      -1.42825029       0.00000000
Si       0.15030783       2.72627811      -2.61429399       0.00000000
Si      -2.68726356      -2.71160082      -0.00905474       0.00000000
Si      -2.69829189      -0.00097740       2.73607811       0.00000000
Si      -2.70466128       2.73180042       0.00163412       0.00000000
Si       0.01945026       2.71586880       2.73655975       0.00000000
Si       0.01822851      -2.71673217       2.73683497       0.00000000
