10
Lattice="16.28999089631971 0.0 0.0 0.0 16.28999089631971 0.0 0.0 0.0 34.40246978574605" Properties=species:S:1:pos:R:3:initial_magmoms:R:1 pbc="T T T"
Si      -1.35829278      -1.35658233      -1.35748781       0.00000000
Si       1.35749457      -1.35749457       1.35759102       0.00000000
Si      -1.35762489       1.35782037       1.35796945       0.00000000
Si       1.35944937       1.36026387      -1.35700618       0.00000000
Si      -2.71252935       0.00109143       2.71497563       0.00000000
Si      -0.00190593       2.71365336      -2.71428758       0.00000000
Si      -2.71511946      -2.71440270       0.00051604       0.00000000
Si       0.00070047      -2.71511946       2.71459720       0.00000000
Si      -2.71534752       2.71498914       0.00044723       0.00000000
Si       2.71521720      -2.71534752       0.00055044       0.00000000
