10
Lattice="16.28999089631971 0.0 0.0 0.0 16.28999089631971 0.0 0.0 0.0 34.40246978574605" Properties=species:S:1:pos:R:3:initial_magmoms:R:1 pbc="T T T"
Si       1.35268902      -1.35783666       1.35563008       0.00000000
Si       1.35515340       1.35785295      -1.35920794       0.00000000
Si      -1.36068741      -1.35739683      -1.35858869       0.00000000
Si      -1.36666584       1.36130643       1.36213215       0.00000000
Si      -0.01778868      -2.68674228       2.70372601       0.00000000
Si       2.71179045      -2.71450044      -0.00099767       0.00000000
Si       2.71104437       2.71533123      -0.00374987       0.00000000
Si       2.71152167       0.00039096      -2.71590450       0.00000000
Si      -0.00296478      -2.71524978      -2.71562928       0.00000000
Si      -0.00252495       2.71515204      -2.71600770       0.00000000
