10
Lattice="16.28999089631971 0.0 0.0 0.0 16.28999089631971 0.0 0.0 0.0 34.40246978574605" Properties=species:S:1:pos:R:3:initial_magmoms:R:1 pbc="T T T"
Si       1.35436200       1.34060184      -1.37217768       0.00000000
Si       1.32689706      -1.34254035       1.41287582       0.00000000
Si      -1.35892387      -1.37622807      -1.37241849       0.00000000
Si      -1.33844162       1.36257705       1.43172839       0.00000000
Si      -2.14084387      -0.38116971       2.92772062       0.00000000
Si      -0.40397408      -2.20644792       3.02346275       0.00000000
Si      -2.71076581       2.69278587       0.00096327       0.00000000
Si       2.69931327       2.70886410      -0.00784377       0.00000000
Si      -0.00056852       2.69693982      -2.73179844       0.00000000
Si       2.69599011      -2.73372264       0.00577962       0.00000000
