10
Lattice="16.28999089631971 0.0 0.0 0.0 16.28999089631971 0.0 0.0 0.0 34.40246978574605" Properties=species:S:1:pos:R:3:initial_magmoms:R:1 pbc="T T T"
Si      -2.19372543      -0.66339396       0.48899698       0.00000000
Si      -0.05035239       2.32352415      -0.31970233       0.00000000
Si       1.45455039      -0.80288523       1.72617929       0.00000000
Si       0.20623140      -0.88285284      -2.55834110       0.00000000
Si       2.06130306       2.34492921      -1.30918672       0.00000000
Si       0.77344920      -3.12121287       1.15802218       0.00000000
Si      -1.68827931      -2.92306131       0.99829143       0.00000000
Si      -3.51210771       0.07690509      -1.40726822       0.00000000
Si      -0.57127401       3.41272242       1.71578974       0.00000000
Si       3.49973450       0.33995601      -1.65128507       0.00000000
