10
Lattice="16.28999089631971 0.0 0.0 0.0 16.28999089631971 0.0 0.0 0.0 34.40246978574605" Properties=species:S:1:pos:R:3:initial_magmoms:R:1 pbc="T T T"
Si      -0.13348026      -0.18761193       2.29361394       0.00000000
Si      -1.06872174      -1.77117912      -1.08581136       0.00000000
Si      -1.21476159       1.79973549      -0.96406095       0.00000000
Si       2.34737271      -0.15929991      -0.36091651       0.00000000
Si      -1.02120381      -0.84193236      -3.19740173       0.00000000
Si       0.76246974      -3.17879802      -1.21819214       0.00000000
Si      -0.50318181       1.43687574      -3.20830732       0.00000000
Si      -0.80545905       1.91767509       3.00990817       0.00000000
Si       2.92863249       1.69507224      -1.67612367       0.00000000
Si       1.87802523      -0.86900634       3.27415368       0.00000000
