10
Lattice="16.28999089631971 0.0 0.0 0.0 16.28999089631971 0.0 0.0 0.0 34.40246978574605" Properties=species:S:1:pos:R:3:initial_magmoms:R:1 pbc="T T T"
Si      -1.34846991       1.34892603      -1.35831347       0.00000000
Si       1.36818081      -1.36300059      -1.35394436       0.00000000
Si      -1.34156295      -1.36306575       1.38583546       0.00000000
Si       1.36257705       1.34052039       1.39780753       0.00000000
Si       2.19150999      -0.51380289       2.80301160       0.00000000
Si       0.43662087      -2.36571525       2.73733725       0.00000000
Si      -2.70558981       2.70879879      -0.00006880       0.00000000
Si      -2.70565497      -0.00597843      -2.71428758       0.00000000
Si       0.00762372       2.70848699      -2.71401236       0.00000000
Si      -2.70031185      -2.72881935       0.00137610       0.00000000
