10
Lattice="16.28999089631971 0.0 0.0 0.0 16.28999089631971 0.0 0.0 0.0 34.40246978574605" Properties=species:S:1:pos:R:3:initial_magmoms:R:1 pbc="T T T"
Si       2.11165545       0.02140506      -0.98948439       0.00000000
Si       0.05035239      -2.32352415       0.31970233       0.00000000
Si      -0.52092162       1.08919827       2.03549207       0.00000000
Si       0.37002735       1.61272629      -2.09187775       0.00000000
Si      -1.95357825       1.20541113      -2.72849581       0.00000000
Si       3.03522515       1.88204886       0.01634118       0.00000000
Si      -2.75574672       0.38338515       2.51017761       0.00000000
Si      -2.14337304      -2.98691811       0.80869931       0.00000000
Si       0.25658379      -3.20637699      -2.23863876       0.00000000
Si      -0.74717343       3.46934061       1.76102901       0.00000000
