10
Lattice="16.28999089631971 0.0 0.0 0.0 16.28999089631971 0.0 0.0 0.0 34.40246978574605" Properties=species:S:1:pos:R:3:initial_magmoms:R:1 pbc="T T T"
Si       0.75898694      -2.23130646       0.30955360       0.00000000
Si      -1.58116020       0.33603012       1.76759989       0.00000000
Si       1.85846420       1.60492338      -0.11149847       0.00000000
Si      -1.75365501       0.19272699      -2.01980453       0.00000000
Si      -0.90005901       2.65435776       2.33575699       0.00000000
Si      -1.16421765      -3.37499478       0.97954207       0.00000000
Si       1.89951500      -2.67890679      -1.77798944       0.00000000
Si      -1.72677651      -1.92503817       2.75137346       0.00000000
Si      -2.14837800       2.57439015      -1.94876339       0.00000000
Si       2.15945453      -2.39591691       2.18442044       0.00000000
