10
Lattice="16.28999089631971 0.0 0.0 0.0 16.28999089631971 0.0 0.0 0.0 34.40246978574605" Properties=species:S:1:pos:R:3:initial_magmoms:R:1 pbc="T T T"
Si      -1.41140307      -1.86865848      -0.17431741       0.00000000
Si       1.00222596       1.20220200      -1.77066171       0.00000000
Si       1.82806380      -1.13235048       1.07428652       0.00000000
Si      -1.61775176       1.64597418       0.80859610       0.00000000
Si       1.81338651       2.75055021      -0.09598294       0.00000000
Si      -0.08762391      -3.36049668      -1.42319657       0.00000000
Si       1.55378907      -3.35585403       0.25007169       0.00000000
Si       1.18255626      -0.87299739       3.48806836       0.00000000
Si      -1.83858877       3.16781856      -1.02801518       0.00000000
Si      -3.64720787      -1.03941603      -0.44654431       0.00000000
