10
Lattice="16.28999089631971 0.0 0.0 0.0 16.28999089631971 0.0 0.0 0.0 34.40246978574605" Properties=species:S:1:pos:R:3:initial_magmoms:R:1 pbc="T T T"
Si       1.06659264       0.53204769      -2.03796905       0.00000000
Si       1.97086683      -0.55586367       1.18420248       0.00000000
Si      -1.77041579      -1.62714294       0.21769895       0.00000000
Si      -0.89985716       1.86380406       1.33024104       0.00000000
Si       0.58732129      -1.88009406       2.77187532       0.00000000
Si       0.92882811       2.95031448      -1.68706366       0.00000000
Si      -0.74280608      -3.29701455       1.49217704       0.00000000
Si      -2.27662754       0.70828920       2.82422903       0.00000000
Si      -3.58100042      -0.64316178       1.47045255       0.00000000
Si       3.79059015      -0.90318276      -0.67882991       0.00000000
