10
Lattice="16.28999089631971 0.0 0.0 0.0 16.28999089631971 0.0 0.0 0.0 34.40246978574605" Properties=species:S:1:pos:R:3:initial_magmoms:R:1 pbc="T T T"
Si       1.18218159       1.34757396       1.48754096       0.00000000
Si      -1.97086683       0.55586367      -1.18420248       0.00000000
Si      -1.38354554      -1.32423039       1.58767284       0.00000000
Si       1.81972332      -0.34731909      -1.86303239       0.00000000
Si      -0.90427419       1.08791136      -3.22217152       0.00000000
Si       2.25491067       2.92110651      -0.10699174       0.00000000
Si      -0.73772523      -3.48970896      -1.03881756       0.00000000
Si       1.15618275      -2.52374454      -2.48809121       0.00000000
Si      -2.87072398       2.41966773       0.14603857       0.00000000
Si       2.46545892      -0.09765855       2.89889619       0.00000000
