10
Lattice="16.28999089631971 0.0 0.0 0.0 16.28999089631971 0.0 0.0 0.0 34.40246978574605" Properties=species:S:1:pos:R:3:initial_magmoms:R:1 pbc="T T T"
Si      -1.34877942       1.37479033       1.37762703       0.00000000
Si       1.36772469      -1.37277459       1.38242618       0.00000000
Si      -1.74490335      -1.05730245      -1.37268137       0.00000000
Si       1.99932057       0.88444926      -1.25842860       0.00000000
Si      -0.44914788      -2.41398252      -2.76825274       0.00000000
Si       2.76561846      -2.66150907      -0.10242997       0.00000000
Si      -2.66152210      -2.77573455      -0.03220761       0.00000000
Si      -2.70705265      -0.00029322       2.74992168       0.00000000
Si      -2.63470225       2.82092042      -0.12671813       0.00000000
Si       0.00928530       2.71179371       2.75570129       0.00000000
