10
Lattice="16.28999089631971 0.0 0.0 0.0 16.28999089631971 0.0 0.0 0.0 34.31420841018396" Properties=species:S:1:pos:R:3:initial_magmoms:R:1 pbc="T T T"
Si      -1.35594702      -1.35595984      -1.35757379       0.00000000
Si      -1.35404109       1.35915126       1.36031892       0.00000000
Si       1.35742941      -1.35600796       1.36018167       0.00000000
Si       1.35902583       1.35963996      -1.35743653       0.00000000
Si      -0.02327841      -2.71177579       2.71154458       0.00000000
Si       0.00138465      -2.71294867      -2.71521620       0.00000000
Si      -2.71369734       0.00185543      -2.71538777       0.00000000
Si       2.71684620      -2.71340479      -0.00085786       0.00000000
Si       2.71565703       2.71485393      -0.00085786       0.00000000
Si      -2.71592419      -2.71535959      -0.00123531       0.00000000
