10
Lattice="16.28999089631971 0.0 0.0 0.0 16.28999089631971 0.0 0.0 0.0 34.31420841018396" Properties=species:S:1:pos:R:3:initial_magmoms:R:1 pbc="T T T"
Si      -1.30497561       1.34317615      -1.48110501       0.00000000
Si      -1.94857722      -1.02766623       0.92912634       0.00000000
Si       1.38886911      -1.39098210      -1.45869781       0.00000000
Si       1.55497824       1.31529418       1.44933003       0.00000000
Si      -2.52068202       2.75064355      -0.00645107       0.00000000
Si      -3.53035251       0.88154524       1.04956928       0.00000000
Si       2.77296525       2.63706967      -0.06656960       0.00000000
Si      -2.67936291      -0.03052275      -2.84567889       0.00000000
Si       0.03611493       2.68507630      -2.85058583       0.00000000
Si       2.57191407      -2.96125665      -0.01701986       0.00000000
