10
Lattice="16.28999089631971 0.0 0.0 0.0 16.28999089631971 0.0 0.0 0.0 34.31420841018396" Properties=species:S:1:pos:R:3:initial_magmoms:R:1 pbc="T T T"
Si      -0.36442359       1.08009216      -2.05744677       0.00000000
Si      -0.36158913      -2.30878889      -0.30278874       0.00000000
Si      -1.62686601       1.23794226       1.18195357       0.00000000
Si       2.23775730      -0.07727976       0.75731500       0.00000000
Si       1.65600882      -3.14980901      -1.08546196       0.00000000
Si      -0.70483572       3.48428439       1.22882680       0.00000000
Si       2.12705046      -0.69939160       3.04923089       0.00000000
Si      -3.48356763       1.51700625      -0.20338043       0.00000000
Si       0.28162152      -0.27315072      -3.84549254       0.00000000
Si      -1.77676659      -2.68023347      -2.15548252       0.00000000
