10
Lattice="16.28999089631971 0.0 0.0 0.0 16.28999089631971 0.0 0.0 0.0 34.31420841018396" Properties=species:S:1:pos:R:3:initial_magmoms:R:1 pbc="T T T"
Si       1.63419651       1.46238588      -0.83064451       0.00000000
Si      -2.23775730       0.07727976      -0.75731500       0.00000000
Si      -0.11070684      -0.62211184       2.29191589       0.00000000
Si       1.08514206      -2.04137225      -0.57153777       0.00000000
Si       2.26626480      -2.22256592       1.47273233       0.00000000
Si      -2.59934643      -2.23150913      -1.06010375       0.00000000
Si      -0.58174848      -3.07252925      -1.84277696       0.00000000
Si       0.11893329      -3.00785795       2.03359838       0.00000000
Si       3.72573477       0.79039080       0.15252674       0.00000000
Si       1.00564686       3.68999451      -0.26089107       0.00000000
