10
Lattice="16.28999089631971 0.0 0.0 0.0 16.28999089631971 0.0 0.0 0.0 34.31420841018396" Properties=species:S:1:pos:R:3:initial_magmoms:R:1 pbc="T T T"
Si       0.73023183      -2.22992181      -0.40655497       0.00000000
Si       0.58411053       1.63211139      -1.63380332       0.00000000
Si      -2.35682091      -0.42192729       0.07140791       0.00000000
Si       0.90510498       1.00150920       2.05847620       0.00000000
Si       1.06259670      -2.70409276       1.81611481       0.00000000
Si       0.25138728       3.42614538      -0.16786520       0.00000000
Si       2.34057978      -0.78960888       2.41205000       0.00000000
Si      -2.36529171      -1.75581765      -1.88409129       0.00000000
Si       2.10629700       2.83739220       1.11507514       0.00000000
Si      -3.54092472       1.63478295      -0.04217219       0.00000000
