10
Lattice="16.28999089631971 0.0 0.0 0.0 16.28999089631971 0.0 0.0 0.0 34.31420841018396" Properties=species:S:1:pos:R:3:initial_magmoms:R:1 pbc="T T T"
Si      -1.69518627       0.36567466       1.51078681       0.00000000
Si       1.84476105       0.56045419       1.30517596       0.00000000
Si       0.11070684       0.62211184      -2.29191589       0.00000000
Si       0.22964013      -2.38574610      -0.25831751       0.00000000
Si       2.37697164      -1.60045407      -0.81918356       0.00000000
Si       1.19584890      -1.41926040      -2.86345366       0.00000000
Si      -3.33022986      -0.95969114       0.47785993       0.00000000
Si       0.40364991      -2.87464158       2.02412766       0.00000000
Si       1.97141580      -1.28159799       2.74277053       0.00000000
Si      -2.12705046       0.69939160      -3.04923089       0.00000000
