10
Lattice="16.28999089631971 0.0 0.0 0.0 16.28999089631971 0.0 0.0 0.0 34.31420841018396" Properties=species:S:1:pos:R:3:initial_magmoms:R:1 pbc="T T T"
Si       0.76046607      -0.49516387      -2.14975204       0.00000000
Si       0.28103508      -1.58529786       1.73540775       0.00000000
Si       0.53302509       2.17276346       0.86832153       0.00000000
Si      -2.34678301       0.70140179      -0.11285949       0.00000000
Si      -1.60326180       2.07854210       1.69402479       0.00000000
Si      -1.10338686      -1.35293581      -3.29052854       0.00000000
Si       2.35351404       1.85978369       2.28069514       0.00000000
Si       2.41621425      -2.52430233       1.52753216       0.00000000
Si       1.77013656       1.37393444      -3.20577240       0.00000000
Si      -1.28361942      -3.38490303       1.49795329       0.00000000
