10
Lattice="16.28999089631971 0.0 0.0 0.0 16.28999089631971 0.0 0.0 0.0 34.31420841018396" Properties=species:S:1:pos:R:3:initial_magmoms:R:1 pbc="T T T"
Si      -1.35614250      -1.35741312      -1.35678456       0.00000000
Si       1.35707103       1.35729909      -1.35664730       0.00000000
Si      -1.35741312       1.35716877       1.35753947       0.00000000
Si       1.35747828      -1.35746199       1.35801987       0.00000000
Si       2.71466334      -2.71471221       0.00003431       0.00000000
Si      -2.71557558       0.00008145       2.71411815       0.00000000
Si      -0.00079821       2.71459818       2.71521620       0.00000000
Si      -2.71479366       2.71502172       0.00017157       0.00000000
Si       2.71507059      -0.00083079       2.71477012       0.00000000
Si      -2.71492398      -2.71511946      -0.00051471       0.00000000
