10
Lattice="16.28999089631971 0.0 0.0 0.0 16.28999089631971 0.0 0.0 0.0 34.31420841018396" Properties=species:S:1:pos:R:3:initial_magmoms:R:1 pbc="T T T"
Si      -2.07612792       0.11306889      -1.11459474       0.00000000
Si       0.07509690      -2.06270496       1.15580613       0.00000000
Si       1.66632039       0.67671918      -1.55855222       0.00000000
Si       0.11117925       1.35174420       2.02570611       0.00000000
Si       2.46016467       1.40043501       1.90618966       0.00000000
Si       2.77741242       2.27357901      -0.24678792       0.00000000
Si      -0.70838694       3.40255746       1.16194837       0.00000000
Si      -3.60527022      -0.21725973       0.71092217       0.00000000
Si       3.06056520      -1.22821713      -1.68795117       0.00000000
Si      -1.99308150      -1.69345953      -2.69256881       0.00000000
