10
Lattice="16.28999089631971 0.0 0.0 0.0 16.28999089631971 0.0 0.0 0.0 34.31420841018396" Properties=species:S:1:pos:R:3:initial_magmoms:R:1 pbc="T T T"
Si      -0.99057861      -0.04403187      -2.10394255       0.00000000
Si      -0.33272325       1.79403399       1.46593812       0.00000000
Si      -0.58411053      -1.63211139       1.63380332       0.00000000
Si       2.26497789       0.48288447      -0.57826336       0.00000000
Si       1.52218647       1.20528081       2.74887846       0.00000000
Si       3.22737480       0.11201004       1.54812069       0.00000000
Si       0.17070291       3.59106534       0.11972234       0.00000000
Si      -1.91260890      -2.29037400      -2.15081579       0.00000000
Si       2.15032887       2.88440514      -0.89114049       0.00000000
Si      -2.65916331       1.62795744      -2.08167262       0.00000000
