10
Lattice="16.28999089631971 0.0 0.0 0.0 16.28999089631971 0.0 0.0 0.0 34.31420841018396" Properties=species:S:1:pos:R:3:initial_magmoms:R:1 pbc="T T T"
Si       2.13628689       0.09422136      -0.82570326       0.00000000
Si      -0.00184077      -0.97728597       2.09934444       0.00000000
Si      -0.71438329       2.20056723       0.32550476       0.00000000
Si      -0.74352121      -1.37714031      -1.80688428       0.00000000
Si       1.60326180      -2.07854210      -1.69402479       0.00000000
Si      -2.29357403      -1.44959823       1.97866131       0.00000000
Si      -1.97355468       1.86983136      -2.15953160       0.00000000
Si      -3.29363342      -0.00171045      -1.53322832       0.00000000
Si      -0.92255646       0.33107796      -3.58902801       0.00000000
Si      -2.70077516       2.03453955       1.61994037       0.00000000
