10
Lattice="16.28999089631971 0.0 0.0 0.0 16.28999089631971 0.0 0.0 0.0 34.31420841018396" Properties=species:S:1:pos:R:3:initial_magmoms:R:1 pbc="T T T"
Si       1.35545832      -1.35581670       1.35280411       0.00000000
Si      -1.34820927      -1.36122498      -1.35616690       0.00000000
Si      -1.35684297       1.35899325       1.35300999       0.00000000
Si       1.36057338       1.35550719      -1.38304867       0.00000000
Si      -0.16325838       2.46286881      -2.82856296       0.00000000
Si       0.05694984      -2.63295270      -2.75160987       0.00000000
Si      -0.00035838      -2.71352304       2.71013769       0.00000000
Si      -2.71205368      -2.71249677      -0.00912758       0.00000000
Si      -2.71491421       0.00120546       2.70976024       0.00000000
Si       2.71456560       0.00138465       2.71017201       0.00000000
