10
Lattice="16.28999089631971 0.0 0.0 0.0 16.28999089631971 0.0 0.0 0.0 34.31420841018396" Properties=species:S:1:pos:R:3:initial_magmoms:R:1 pbc="T T T"
Si       1.35661491       1.35742941       1.35767673       0.00000000
Si      -1.35816246      -1.35708732       1.35657867       0.00000000
Si       1.35741312      -1.35716877      -1.35753947       0.00000000
Si      -1.35738054       1.35785295      -1.35736790       0.00000000
Si      -2.71005327      -0.00306252       2.71507894       0.00000000
Si      -2.71456560       0.00009774      -2.71384363       0.00000000
Si       2.71448415       0.00013032      -2.71418677       0.00000000
Si       0.00127062      -2.71458189      -2.71432403       0.00000000
Si      -2.71474479      -2.71464705      -0.00027451       0.00000000
Si      -2.71458189       2.71485882       0.00010294       0.00000000
