10
Lattice="16.28999089631971 0.0 0.0 0.0 16.28999089631971 0.0 0.0 0.0 34.31420841018396" Properties=species:S:1:pos:R:3:initial_magmoms:R:1 pbc="T T T"
Si      -1.35661491      -1.35742941      -1.35767673       0.00000000
Si       1.35819504       1.35793440      -1.35747084       0.00000000
Si      -1.35581670       1.35840681       1.36011304       0.00000000
Si       1.35710361      -1.35694071       1.36416212       0.00000000
Si       0.03129309       2.69218314       2.72156433       0.00000000
Si      -2.71399545       0.00042354      -2.71504463       0.00000000
Si      -2.71477737      -2.71451673      -0.00109806       0.00000000
Si       0.00079821      -2.71459818      -2.71521620       0.00000000
Si       0.00092853       2.71533123      -2.71501032       0.00000000
Si       2.71601541       0.00058644      -2.71459854       0.00000000
