10
Lattice="16.28999089631971 0.0 0.0 0.0 16.28999089631971 0.0 0.0 0.0 34.31420841018396" Properties=species:S:1:pos:R:3:initial_magmoms:R:1 pbc="T T T"
Si       1.35581670      -1.35840681      -1.36011304       0.00000000
Si      -1.35870003       1.35801585      -1.36083364       0.00000000
Si       1.38710979       1.33377633       1.36145129       0.00000000
Si      -1.36733373      -1.35619137       1.37088771       0.00000000
Si      -0.12424383       2.57008959       2.61326863       0.00000000
Si       2.71292031      -2.71534752       0.00404908       0.00000000
Si      -2.71404432       2.71544526      -0.00367162       0.00000000
Si      -2.71085148      -2.71889874      -0.00271082       0.00000000
Si       2.71406061       2.71580364       0.00048040       0.00000000
Si       2.71401174      -0.00047241      -2.71758388       0.00000000
