10
Lattice="16.28999089631971 0.0 0.0 0.0 16.28999089631971 0.0 0.0 0.0 34.31420841018396" Properties=species:S:1:pos:R:3:initial_magmoms:R:1 pbc="T T T"
Si      -1.39792635       1.41845175       1.24766532       0.00000000
Si       1.17584478       1.76467941      -1.10680541       0.00000000
Si      -1.77616386      -1.01002887      -1.25332716       0.00000000
Si       1.39082391      -1.15308765       2.79156536       0.00000000
Si      -0.30555153      -2.28361365      -2.61083232       0.00000000
Si       2.41523685       0.43684893      -2.61316569       0.00000000
Si       0.27722322       3.05286003       1.95175895       0.00000000
Si       1.16137926      -3.62537208      -1.01106872       0.00000000
Si       2.30034348       3.19961664       0.61899435       0.00000000
Si      -3.31064928       0.29932875       2.27705783       0.00000000
