10
Lattice="16.28999089631971 0.0 0.0 0.0 16.28999089631971 0.0 0.0 0.0 34.31420841018396" Properties=species:S:1:pos:R:3:initial_magmoms:R:1 pbc="T T T"
Si       0.67507389       2.24266059      -0.35480911       0.00000000
Si      -0.78589476      -1.36627488      -1.76910432       0.00000000
Si      -0.87087969      -0.33202278       2.19240463       0.00000000
Si       2.24826435      -0.76893687       0.33833828       0.00000000
Si       2.89137726       1.45992609       0.01077467       0.00000000
Si      -2.13218344      -2.28175496       1.86360570       0.00000000
Si       0.79496829      -3.12039674      -1.69224045       0.00000000
Si      -0.57596553       3.40285068       1.36865728       0.00000000
Si       0.98582193      -0.61108677       3.57773863       0.00000000
Si      -3.68806319       1.00968678       0.04845169       0.00000000
