10
Lattice="16.28999089631971 0.0 0.0 0.0 16.28999089631971 0.0 0.0 0.0 34.31420841018396" Properties=species:S:1:pos:R:3:initial_magmoms:R:1 pbc="T T T"
Si      -0.04940757      -1.91088216       1.33386265       0.00000000
Si       0.93349845       1.70305434       1.32899003       0.00000000
Si      -2.06860194       1.10100852      -0.26885197       0.00000000
Si       0.62351604      -0.96707214      -2.06252528       0.00000000
Si       0.01829367       0.79952949       3.35596577       0.00000000
Si      -1.47193182      -1.65578076      -2.86146344       0.00000000
Si      -2.78872582       0.18883368      -2.30759749       0.00000000
Si       1.95854670      -1.93657149       2.53269882       0.00000000
Si      -1.15743708      -1.31670441       3.30981314       0.00000000
Si       1.60300116       0.71040690      -3.37027481       0.00000000
