10
Lattice="16.28999089631971 0.0 0.0 0.0 16.28999089631971 0.0 0.0 0.0 34.31420841018396" Properties=species:S:1:pos:R:3:initial_magmoms:R:1 pbc="T T T"
Si      -1.35638153      -1.35587615       1.35685319       0.00000000
Si       1.35759830      -1.35265073      -1.36186306       0.00000000
Si       1.35868484       1.35860216       1.35623553       0.00000000
Si      -1.35506204       1.36068891      -1.36083364       0.00000000
Si       0.01939093       2.69506308      -2.71938538       0.00000000
Si      -2.71332224       0.00120376       2.71363775       0.00000000
Si       0.00123721      -2.71345217       2.71356912       0.00000000
Si      -2.71289870       2.71580025      -0.00034314       0.00000000
Si      -2.71568429      -2.71402232      -0.00048040       0.00000000
Si       0.00139696       2.71612605       2.71370637       0.00000000
