10
Lattice="16.28999089631971 0.0 0.0 0.0 16.28999089631971 0.0 0.0 0.0 34.31420841018396" Properties=species:S:1:pos:R:3:initial_magmoms:R:1 pbc="T T T"
Si      -0.85260231      -1.86175152      -1.16167386       0.00000000
Si       1.94857722       1.02766623      -0.92912634       0.00000000
Si      -0.29108601      -1.36195803       1.94578828       0.00000000
Si      -1.58177529       1.90921148       0.12044294       0.00000000
Si      -2.11149351      -0.35862435      -2.42344232       0.00000000
Si       0.64360161       2.37084238      -2.41023135       0.00000000
Si      -2.85081516      -1.51423695       1.63689160       0.00000000
Si      -3.44562822       1.05143953      -1.02033356       0.00000000
Si       0.07397289      -0.11992698       3.79772714       0.00000000
Si      -0.57210480       3.77830979      -0.93557742       0.00000000
