10
Lattice="16.28999089631971 0.0 0.0 0.0 16.28999089631971 0.0 0.0 0.0 34.31420841018396" Properties=species:S:1:pos:R:3:initial_magmoms:R:1 pbc="T T T"
Si      -0.62462376       0.80340651      -2.05305455       0.00000000
Si       0.57388041       1.94759609       1.19585083       0.00000000
Si       2.00748186      -1.31988096      -0.30354366       0.00000000
Si      -2.09380257      -0.63066735       1.10769758       0.00000000
Si       0.40865094       0.79640181       3.29220994       0.00000000
Si      -1.14645762      -2.57742009       1.92718996       0.00000000
Si       0.65661732      -1.56234132       3.01501961       0.00000000
Si       1.12321179      -3.10239792      -1.52777235       0.00000000
Si      -2.75980293       1.74241098      -1.84517896       0.00000000
Si       2.59656084      -2.06366607       1.81879132       0.00000000
