10
Lattice="16.28999089631971 0.0 0.0 0.0 16.28999089631971 0.0 0.0 0.0 34.31420841018396" Properties=species:S:1:pos:R:3:initial_magmoms:R:1 pbc="T T T"
Si       0.94734495      -1.94675274       0.81949238       0.00000000
Si      -1.67984109      -0.83606796      -1.39504492       0.00000000
Si      -0.93032190       1.89664470       1.11449180       0.00000000
Si       2.09380257       0.63066735      -1.10769758       0.00000000
Si       2.75041989      -0.93167397       1.90732203       0.00000000
Si      -0.97127496       3.30551046      -0.81805119       0.00000000
Si       1.35532800      -3.10819716      -1.22587578       0.00000000
Si       2.50245351       1.42706916       2.18451236       0.00000000
Si       2.66768298       2.57826344       0.08815325       0.00000000
Si      -3.58361429      -1.03788477       0.02576998       0.00000000
