10
Lattice="16.28999089631971 0.0 0.0 0.0 16.28999089631971 0.0 0.0 0.0 34.31420841018396" Properties=species:S:1:pos:R:3:initial_magmoms:R:1 pbc="T T T"
Si       0.73941939      -0.87322545       1.99176934       0.00000000
Si       1.93994352      -0.50132475      -1.19622829       0.00000000
Si      -1.80307494      -1.01507877      -1.08782964       0.00000000
Si      -0.24796638       2.35874313       0.27719033       0.00000000
Si      -0.65661732       1.56234132      -3.01501961       0.00000000
Si      -2.75041989       0.93167397      -1.90732203       0.00000000
Si       1.35086454       0.24246036      -3.31856326       0.00000000
Si       3.53010816       0.72285246      -0.01111781       0.00000000
Si       0.58847625      -3.25927062       1.68431386       0.00000000
Si       3.04144074      -0.19595241       2.14045289       0.00000000
