10
Lattice="16.28999089631971 0.0 0.0 0.0 16.28999089631971 0.0 0.0 0.0 34.31420841018396" Properties=species:S:1:pos:R:3:initial_magmoms:R:1 pbc="T T T"
Si       0.91535139      -1.02478761      -1.82599731       0.00000000
Si      -2.29664565      -0.17399349      -0.20633145       0.00000000
Si       0.77276502      -1.35835794       1.75273643       0.00000000
Si       0.62864739       2.27185227       0.33579903       0.00000000
Si       0.80265717       1.78295679       2.61824419       0.00000000
Si      -1.24856334      -2.09543157       2.66762237       0.00000000
Si       3.21737274      -0.34751457      -1.67731376       0.00000000
Si      -2.91817431       2.07708903      -0.76620239       0.00000000
Si       2.05807860      -0.11016927       3.16130116       0.00000000
Si       0.17593200      -0.15156216      -3.81776665       0.00000000
