10
Lattice="16.28999089631971 0.0 0.0 0.0 16.28999089631971 0.0 0.0 0.0 34.31420841018396" Properties=species:S:1:pos:R:3:initial_magmoms:R:1 pbc="T T T"
Si       0.17400978      -0.48889548       2.28244516       0.00000000
Si       2.14733151       0.78529203      -0.56086605       0.00000000
Si      -0.62864739      -2.27185227      -0.33579903       0.00000000
Si      -0.22964013       2.38574610       0.25831751       0.00000000
Si       0.96620877       0.96648570      -2.60513616       0.00000000
Si      -0.11893329       3.00785795      -2.03359838       0.00000000
Si       3.42704133      -1.15000884      -0.38740763       0.00000000
Si       1.74177567       1.10414811       3.00108803       0.00000000
Si       1.61512092       2.94620030       1.56349347       0.00000000
Si      -3.54682170      -0.19476324      -1.10200142       0.00000000
