10
Lattice="16.28999089631971 0.0 0.0 0.0 16.28999089631971 0.0 0.0 0.0 34.31420841018396" Properties=species:S:1:pos:R:3:initial_magmoms:R:1 pbc="T T T"
Si      -1.35184194      -1.35562600       1.37387648       0.00000000
Si       1.36080144       1.35733245       1.37226371       0.00000000
Si       1.35816246      -1.44447166      -1.30863827       0.00000000
Si      -1.41341814       1.36734754      -1.43472590       0.00000000
Si       0.21300804       2.48448805      -2.69376105       0.00000000
Si      -2.70554094      -2.71872433      -0.00206915       0.00000000
Si      -2.70832653      -0.00108943       2.73429834       0.00000000
Si       0.00500103       2.71505671       2.73416109       0.00000000
Si       0.00620649      -2.71556407       2.73385226       0.00000000
Si      -2.71852407       2.73354586      -0.01295705       0.00000000
