10
Lattice="16.28999089631971 0.0 0.0 0.0 16.28999089631971 0.0 0.0 0.0 34.31420841018396" Properties=species:S:1:pos:R:3:initial_magmoms:R:1 pbc="T T T"
Si       1.35303111       1.34434854       1.37496081       0.00000000
Si      -1.36790388      -1.36805212       1.37345098       0.00000000
Si      -1.35122292       1.37161800      -1.43123957       0.00000000
Si       1.33665966      -1.44497676      -1.39679152       0.00000000
Si      -2.51569728      -0.24089652      -2.69257378       0.00000000
Si       2.71124244       2.68899030      -0.00956681       0.00000000
Si      -2.73903318       2.69861769      -0.00376084       0.00000000
Si      -0.00698841       2.70443322       2.73390716       0.00000000
Si       2.70785412      -0.01110978       2.73545130       0.00000000
Si       2.70586674      -2.73740530       0.01629926       0.00000000
