10
Lattice="16.28999089631971 0.0 0.0 0.0 16.28999089631971 0.0 0.0 0.0 34.31420841018396" Properties=species:S:1:pos:R:3:initial_magmoms:R:1 pbc="T T T"
Si       1.46047995      -1.79946996       0.44460945       0.00000000
Si       0.00847080       1.33389036       1.95549920       0.00000000
Si      -1.96544389      -1.33609765       0.07957469       0.00000000
Si       1.03679334       1.09755504      -1.90052781       0.00000000
Si       3.09552354      -0.47410416       1.47753633       0.00000000
Si       2.36529171       1.75581765       1.88409129       0.00000000
Si      -0.81990828       1.37661903      -3.28586181       0.00000000
Si      -2.60663783      -1.41558308       2.39492720       0.00000000
Si      -0.91849536      -0.09868482       3.82397752       0.00000000
Si      -3.44874680      -0.83470612      -1.72768704       0.00000000
