10
Lattice="16.28999089631971 0.0 0.0 0.0 16.28999089631971 0.0 0.0 0.0 34.31420841018396" Properties=species:S:1:pos:R:3:initial_magmoms:R:1 pbc="T T T"
Si      -1.36032903      -1.33627914      -1.37325539       0.00000000
Si      -1.34177472       1.33071055       1.40557939       0.00000000
Si       1.35415512       1.38090004      -1.37449070       0.00000000
Si       1.22704425      -1.52871291       1.44277601       0.00000000
Si       2.71077003      -2.68432551      -0.01094624       0.00000000
Si      -2.72587086      -2.69734122       0.01345118       0.00000000
Si       2.71075374       2.71584925      -0.00658833       0.00000000
Si      -0.00447975      -2.69382258      -2.73343706       0.00000000
Si       2.71075374       0.02107274      -2.73446648       0.00000000
Si      -2.72616408       2.72897899       0.00724030       0.00000000
