10
Lattice="16.28999089631971 0.0 0.0 0.0 16.28999089631971 0.0 0.0 0.0 34.31420841018396" Properties=species:S:1:pos:R:3:initial_magmoms:R:1 pbc="T T T"
Si       0.36391860      -2.29931625      -0.08592283       0.00000000
Si       1.96544389       1.33609765      -0.07957469       0.00000000
Si      -1.48330291       0.50139154      -1.80726174       0.00000000
Si      -0.64119395      -0.07948543       2.31535251       0.00000000
Si       3.42592384      -0.46337231       0.36503475       0.00000000
Si      -2.73800758       0.87383632       2.19463505       0.00000000
Si       1.25818096      -2.60488407      -2.22002758       0.00000000
Si      -2.14962907       2.75288783      -1.32274485       0.00000000
Si      -0.11576814       0.76298450      -3.69423543       0.00000000
Si      -1.69220587      -3.38525652       0.13482060       0.00000000
