10
Lattice="16.28999089631971 0.0 0.0 0.0 16.28999089631971 0.0 0.0 0.0 34.31420841018396" Properties=species:S:1:pos:R:3:initial_magmoms:R:1 pbc="T T T"
Si       1.32945948      -1.78082932       0.64140154       0.00000000
Si       1.18281690       1.56419838       1.28753845       0.00000000
Si       0.17594829       0.38608929      -2.31470054       0.00000000
Si      -2.29389264      -0.29506077       0.49964947       0.00000000
Si      -3.04758207       1.29166668      -1.07901089       0.00000000
Si      -0.27531729       3.34389717       1.00921575       0.00000000
Si       0.25436835      -2.39796293       2.60173905       0.00000000
Si      -2.46125610      -2.55790304      -0.30539663       0.00000000
Si       0.23325651      -1.99305055      -2.98465152       0.00000000
Si       3.47117094      -0.75518811       0.84172800       0.00000000
