10
Lattice="16.28999089631971 0.0 0.0 0.0 16.28999089631971 0.0 0.0 0.0 34.31420841018396" Properties=species:S:1:pos:R:3:initial_magmoms:R:1 pbc="T T T"
Si       1.35378045       1.33130025       1.37355735       0.00000000
Si       1.31186628      -1.38860847      -1.38603401       0.00000000
Si      -1.36433637      -1.38061008       1.36611117       0.00000000
Si      -1.22699538       1.44448317      -1.51505893       0.00000000
Si      -0.60141051      -2.17860831      -2.66329500       0.00000000
Si      -2.28674133      -0.27002304      -2.71568429       0.00000000
Si       2.70228294       2.69672805      -0.00666039       0.00000000
Si      -2.72104902       2.69698869      -0.02726609       0.00000000
Si      -0.00426798       2.68855047       2.73075368       0.00000000
Si       2.70909216      -0.02503773       2.73126840       0.00000000
