10
Lattice="16.28999089631971 0.0 0.0 0.0 16.28999089631971 0.0 0.0 0.0 34.31420841018396" Properties=species:S:1:pos:R:3:initial_magmoms:R:1 pbc="T T T"
Si      -1.16447436      -1.61251452      -1.26133421       0.00000000
Si       0.74678247       1.89397314      -1.22770095       0.00000000
Si      -1.38781026       1.32699969       1.42747873       0.00000000
Si       1.35122292      -1.37161800       1.43123957       0.00000000
Si       2.66005926       2.68397298       0.04956004       0.00000000
Si      -2.77255800       2.69223201      -0.05076104       0.00000000
Si      -0.01614339       2.69197137       2.80170521       0.00000000
Si       2.68788258      -2.81659476       0.03444805       0.00000000
Si       2.70425403      -0.02726946       2.80620037       0.00000000
Si      -2.79090054      -2.72965503      -0.00229905       0.00000000
