10
Lattice="16.28999089631971 0.0 0.0 0.0 16.28999089631971 0.0 0.0 0.0 34.31420841018396" Properties=species:S:1:pos:R:3:initial_magmoms:R:1 pbc="T T T"
Si       1.34956134       1.34635221      -1.37932901       0.00000000
Si      -1.36417347      -1.36735002      -1.37613778       0.00000000
Si       1.31235498      -1.45064079       1.36162286       0.00000000
Si      -1.25977086       1.33586145       1.59008699       0.00000000
Si      -1.99200636      -0.61864533       2.88864031       0.00000000
Si      -0.25827795      -2.58250257       2.73738319       0.00000000
Si      -2.70389565       2.69633709       0.00521576       0.00000000
Si       2.72300382       2.70366759      -0.00452948       0.00000000
Si      -0.00548973       2.70558981      -2.73861850       0.00000000
Si       2.70967860      -0.01107720      -2.73820673       0.00000000
