10
Lattice="16.28999089631971 0.0 0.0 0.0 16.28999089631971 0.0 0.0 0.0 34.31420841018396" Properties=species:S:1:pos:R:3:initial_magmoms:R:1 pbc="T T T"
Si      -1.08331758      -1.54831563      -1.33523522       0.00000000
Si       1.57063293       1.13186178      -1.37576033       0.00000000
Si      -1.73372841       1.96385724       0.15125712       0.00000000
Si       1.21738428      -1.72100592       1.56592978       0.00000000
Si      -2.30130459      -2.87009112       0.18066441       0.00000000
Si      -2.46770694      -0.15004719      -2.73357431       0.00000000
Si      -2.07578583       1.78396677       2.54316466       0.00000000
Si       0.25827795       2.58250257      -2.73738319       0.00000000
Si       3.09395970       2.31715476      -0.02964749       0.00000000
Si       3.24599427      -0.73184454       2.09145217       0.00000000
