10
Lattice="16.28999089631971 0.0 0.0 0.0 16.28999089631971 0.0 0.0 0.0 34.31420841018396" Properties=species:S:1:pos:R:3:initial_magmoms:R:1 pbc="T T T"
Si      -2.19758616       0.62338572      -0.48606103       0.00000000
Si       1.27503459       1.96118568       0.30309757       0.00000000
Si       0.75368943      -1.58672745       1.57866035       0.00000000
Si       0.79299720      -0.71156349      -2.13846266       0.00000000
Si       2.64427425       1.54525311      -1.57979272       0.00000000
Si       3.04758207      -1.29166668       1.07901089       0.00000000
Si       3.22353036      -0.90557739      -1.23568965       0.00000000
Si      -2.92991940      -1.27498572      -1.66163216       0.00000000
Si      -3.21126399       0.79268769       1.63092092       0.00000000
Si       0.78788214       1.45787355      -3.32981833       0.00000000
