10
Lattice="16.28999089631971 0.0 0.0 0.0 16.28999089631971 0.0 0.0 0.0 34.31420841018396" Properties=species:S:1:pos:R:3:initial_magmoms:R:1 pbc="T T T"
Si       1.49723019       0.09104481       1.78512906       0.00000000
Si      -1.27503459      -1.96118568      -0.30309757       0.00000000
Si       1.36923966      -0.41593257      -1.88289030       0.00000000
Si      -1.08755298       2.12534001      -0.03877508       0.00000000
Si      -0.48203739      -2.67274917      -2.44156024       0.00000000
Si       3.10889763       1.63035207       1.02585815       0.00000000
Si      -0.48715245      -0.50331213      -3.63291590       0.00000000
Si       1.77254748      -3.25285236       0.77591331       0.00000000
Si       1.94849577      -2.86676307      -1.53878722       0.00000000
Si      -0.77030523       2.99848401      -2.19175266       0.00000000
