10
Lattice="16.28999089631971 0.0 0.0 0.0 16.28999089631971 0.0 0.0 0.0 34.31420841018396" Properties=species:S:1:pos:R:3:initial_magmoms:R:1 pbc="T T T"
Si       0.96239691      -0.37087443       2.12638406       0.00000000
Si      -2.26497789      -0.48288447       0.57826336       0.00000000
Si       0.69268338      -0.39848598      -2.25808206       0.00000000
Si      -0.11464902       2.40152067      -0.31287713       0.00000000
Si      -0.74279142       0.72239634       3.32714182       0.00000000
Si      -1.52684541       0.22032225      -3.12739870       0.00000000
Si      -2.59770114       1.31114952       2.04420148       0.00000000
Si      -3.25555650      -0.52691634      -1.52567919       0.00000000
Si      -2.09427498       3.10818087       0.69798570       0.00000000
Si       2.63573829       0.98541468      -2.63221008       0.00000000
