10
Lattice="16.28999089631971 0.0 0.0 0.0 16.28999089631971 0.0 0.0 0.0 34.31420841018396" Properties=species:S:1:pos:R:3:initial_magmoms:R:1 pbc="T T T"
Si      -2.25976509       0.25793586       0.49285525       0.00000000
Si       0.43424253      -2.26761687       0.29348959       0.00000000
Si       0.72700641       1.22129388       1.86720869       0.00000000
Si       0.07118730       0.87029325      -2.21697362       0.00000000
Si       0.19319940       3.32125407       0.94899428       0.00000000
Si      -2.10882195       2.64398103       0.80031073       0.00000000
Si       1.51000155      -2.69573436      -1.75651100       0.00000000
Si      -2.31614478      -0.85151088       2.61282255       0.00000000
Si      -1.07478162      -0.66143916      -3.58041513       0.00000000
Si      -0.78765408       0.58790610       3.70717189       0.00000000
