10
Lattice="16.28999089631971 0.0 0.0 0.0 16.28999089631971 0.0 0.0 0.0 34.31420841018396" Properties=species:S:1:pos:R:3:initial_magmoms:R:1 pbc="T T T"
Si      -1.14596892      -1.53173241      -1.36344152       0.00000000
Si       1.99293489      -0.09646938      -1.26183709       0.00000000
Si      -0.97948512       2.14558848      -0.17071328       0.00000000
Si      -0.07118730      -0.87029325       2.21697362       0.00000000
Si       0.61067952       3.36976569       1.01439720       0.00000000
Si      -2.33095239      -0.61235739       2.70982887       0.00000000
Si      -0.82872117      -0.65858841      -3.51641910       0.00000000
Si       3.05048169      -2.02672035      -0.29880829       0.00000000
Si       1.43881425      -3.56602761       0.46046262       0.00000000
Si      -0.05841594      -3.65707242      -1.32466644       0.00000000
