10
Lattice="16.28999089631971 0.0 0.0 0.0 16.28999089631971 0.0 0.0 0.0 34.31420841018396" Properties=species:S:1:pos:R:3:initial_magmoms:R:1 pbc="T T T"
Si       2.24932320       0.05918157       0.56230725       0.00000000
Si      -0.72700641      -1.22129388      -1.86720869       0.00000000
Si      -0.53380701       2.09996019      -0.91821442       0.00000000
Si      -1.51466049      -0.63338778       1.83996320       0.00000000
Si      -2.83582836       1.42268715      -1.06689796       0.00000000
Si      -2.98677150      -0.96335802      -1.37435344       0.00000000
Si       1.87727589       0.95404014       2.88304709       0.00000000
Si       0.30450897       3.56931819       0.70749074       0.00000000
Si      -3.04315119      -2.07280476       0.74561385       0.00000000
Si       3.10743153      -2.11768371      -0.19023808       0.00000000
