10
Lattice="16.28999089631971 0.0 0.0 0.0 16.28999089631971 0.0 0.0 0.0 34.31420841018396" Properties=species:S:1:pos:R:3:initial_magmoms:R:1 pbc="T T T"
Si      -1.46375424       1.72250460       0.67187258       0.00000000
Si      -1.52849070      -1.43941698      -1.09434935       0.00000000
Si       0.59970006      -0.67383585       2.26871947       0.00000000
Si       1.51466049       0.63338778      -1.83996320       0.00000000
Si      -1.47211101      -0.32997024      -3.21431664       0.00000000
Si      -3.50811666      -0.73275678      -0.08348652       0.00000000
Si      -0.17844066       2.97069327       2.08043730       0.00000000
Si       1.31582475      -2.86189236       1.98744575       0.00000000
Si      -1.32116787       2.05607493      -2.90686116       0.00000000
Si       0.78765408      -0.58790610      -3.70717189       0.00000000
