10
Lattice="16.28999089631971 0.0 0.0 0.0 16.28999089631971 0.0 0.0 0.0 34.31420841018396" Properties=species:S:1:pos:R:3:initial_magmoms:R:1 pbc="T T T"
Si      -1.37041254       1.28896254      -1.33225332       0.00000000
Si      -1.36342413      -1.34040636       1.35019280       0.00000000
Si       1.35288450       1.37494116       1.35273205       0.00000000
Si       1.30552947      -1.35782037      -1.50613037       0.00000000
Si       0.13600521       2.41738713      -2.70576160       0.00000000
Si       2.69938332      -2.69024463      -0.02710824       0.00000000
Si      -0.00716760      -2.69842221       2.71030583       0.00000000
Si      -2.72394864      -2.68998399      -0.04771393       0.00000000
Si       2.70519885       0.01788642       2.71051172       0.00000000
Si       2.70599706       2.72141346      -0.00850307       0.00000000
