10
Lattice="16.28999089631971 0.0 0.0 0.0 16.28999089631971 0.0 0.0 0.0 34.31420841018396" Properties=species:S:1:pos:R:3:initial_magmoms:R:1 pbc="T T T"
Si      -1.35660561       1.35684297      -1.35705907       0.00000000
Si      -1.35671964      -1.35743267       1.35716202       0.00000000
Si       1.35728788      -1.35752389      -1.35747084       0.00000000
Si       1.35656135       1.35799956       1.35777967       0.00000000
Si       2.71306711      -0.00011403      -2.71422109       0.00000000
Si      -2.71429566      -0.00032580      -2.71404952       0.00000000
Si      -0.00145096       2.71498914      -2.71418677       0.00000000
Si      -2.71471920      -2.71492229      -0.00006863       0.00000000
Si      -0.00139696      -2.71612605      -2.71370637       0.00000000
Si      -2.71511016       2.71524978       0.00006863       0.00000000
