10
Lattice="16.28999089631971 0.0 0.0 0.0 16.28999089631971 0.0 0.0 0.0 34.31420841018396" Properties=species:S:1:pos:R:3:initial_magmoms:R:1 pbc="T T T"
Si      -1.35803214      -1.35690813      -1.35843164       0.00000000
Si       1.35754344       1.35782037      -1.35839733       0.00000000
Si      -1.35798327       1.35936792       1.35963264       0.00000000
Si       1.36137159      -1.36212093       1.35506885       0.00000000
Si      -2.68493409      -0.02265939       2.72060353       0.00000000
Si       2.71396287      -2.71344159      -0.00236768       0.00000000
Si      -0.00021177      -2.71425609      -2.71555934       0.00000000
Si      -2.71505430       2.71515204      -0.00175003       0.00000000
Si       2.71435383       0.00070047      -2.71593680       0.00000000
Si       2.71515204       2.71560816      -0.00061766       0.00000000
