10
Lattice="16.28999089631971 0.0 0.0 0.0 16.28999089631971 0.0 0.0 0.0 34.31420841018396" Properties=species:S:1:pos:R:3:initial_magmoms:R:1 pbc="T T T"
Si       0.58907898      -0.74378511       2.12233498       0.00000000
Si      -0.88427007      -1.78251696      -1.22422870       0.00000000
Si       1.95942636       1.05806808      -0.89035126       0.00000000
Si      -2.00748186       1.31988096       0.30354366       0.00000000
Si      -1.35086454      -0.24246036       3.31856326       0.00000000
Si      -2.74595643      -2.41898355       0.18536546       0.00000000
Si       1.41431409       3.38982782      -0.84653199       0.00000000
Si      -1.48484979      -0.93887415      -3.37494154       0.00000000
Si      -2.63210562       2.12328747      -1.74951089       0.00000000
Si       0.73984293      -3.54796200      -1.22337084       0.00000000
