10
Lattice="16.28999089631971 0.0 0.0 0.0 16.28999089631971 0.0 0.0 0.0 34.31420841018396" Properties=species:S:1:pos:R:3:initial_magmoms:R:1 pbc="T T T"
Si       1.27307979       1.15422795       1.59854343       0.00000000
Si       1.81516212      -0.84269799      -1.36014735       0.00000000
Si      -0.97494021       1.93157046      -1.18977721       0.00000000
Si      -1.49239206      -1.43674542       1.36525472       0.00000000
Si       1.08015732       3.22637364      -1.07890794       0.00000000
Si       2.77949754       2.28265254       0.22503515       0.00000000
Si       1.17234243      -0.84351249      -3.62094024       0.00000000
Si      -0.08508267       2.59869961       2.90718170       0.00000000
Si       2.76773616      -2.76205095      -0.27053337       0.00000000
Si       2.64349233      -0.13473459       2.93079675       0.00000000
