10
Lattice="16.28999089631971 0.0 0.0 0.0 16.28999089631971 0.0 0.0 0.0 34.31420841018396" Properties=species:S:1:pos:R:3:initial_magmoms:R:1 pbc="T T T"
Si       1.35752715       1.35751738      -1.35644142       0.00000000
Si       1.35710361      -1.35707911       1.35753947       0.00000000
Si      -1.35819504      -1.35822829      -1.35692182       0.00000000
Si      -1.35842310       1.35815269       1.35740221       0.00000000
Si       2.71404432      -2.71415902       0.00075491       0.00000000
Si      -0.00166158       2.71374133       2.71559366       0.00000000
Si       0.00242721      -2.71525045      -2.71435834       0.00000000
Si       2.71510317       0.00041051       2.71477012       0.00000000
Si       2.71521720       2.71468615       0.00054903       0.00000000
Si       0.00270414       2.71297570      -2.71693191       0.00000000
