10
Lattice="16.28999089631971 0.0 0.0 0.0 16.28999089631971 0.0 0.0 0.0 34.31420841018396" Properties=species:S:1:pos:R:3:initial_magmoms:R:1 pbc="T T T"
Si       2.02860999       0.98916138       0.52552240       0.00000000
Si       1.59594759      -1.32919884      -1.29700917       0.00000000
Si      -1.21738428       1.72100592      -1.56592978       0.00000000
Si      -0.80021367      -1.23761809       2.40141259       0.00000000
Si       1.58452830       1.09089243       2.76627577       0.00000000
Si      -0.85752189       1.14152175       3.07136357       0.00000000
Si      -2.30070186       0.17269029      -2.90116500       0.00000000
Si      -3.57933654      -0.79711857       0.99181843       0.00000000
Si       0.26811711      -2.68673318      -2.86396838       0.00000000
Si      -3.51868887      -1.14908520      -1.38526537       0.00000000
