10
Lattice="16.28999089631971 0.0 0.0 0.0 16.28999089631971 0.0 0.0 0.0 34.31420841018396" Properties=species:S:1:pos:R:3:initial_magmoms:R:1 pbc="T T T"
Si       0.44408169      -0.10173105      -2.24075338       0.00000000
Si       1.03693995       1.93451895       0.91241531       0.00000000
Si      -2.44205019       0.05062932       0.30508780       0.00000000
Si       1.44414108      -1.54961883       1.27113625       0.00000000
Si      -2.38474197      -2.32851052      -0.36486318       0.00000000
Si      -1.58452830      -1.09089243      -2.76627577       0.00000000
Si       0.83370591       1.29865509       3.20937539       0.00000000
Si       3.02333182       2.10054663      -0.38202030       0.00000000
Si      -2.61799848      -0.33545997       2.61978833       0.00000000
Si       0.85317246      -1.09064808       3.46151634       0.00000000
