10
Lattice="16.28999089631971 0.0 0.0 0.0 16.28999089631971 0.0 0.0 0.0 34.31420841018396" Properties=species:S:1:pos:R:3:initial_magmoms:R:1 pbc="T T T"
Si      -0.98971524      -1.60215964       1.45560408       0.00000000
Si       1.71208130       1.12075852       1.34152987       0.00000000
Si      -1.85088609       1.70525512       0.18775380       0.00000000
Si       0.36804341      -1.26779110      -2.17239943       0.00000000
Si      -1.63302363      -2.50703656      -2.18039465       0.00000000
Si      -2.37662955      -0.25484026       2.87620967       0.00000000
Si      -2.22096231      -3.04770166       0.09148173       0.00000000
Si       0.35764746       2.45071810       2.87631948       0.00000000
Si       2.36793788       1.82383003      -2.37698086       0.00000000
Si       0.67979540       0.50693177      -3.80603118       0.00000000
