10
Lattice="16.28999089631971 0.0 0.0 0.0 16.28999089631971 0.0 0.0 0.0 34.31420841018396" Properties=species:S:1:pos:R:3:initial_magmoms:R:1 pbc="T T T"
Si      -1.35518341       1.27490427       1.41285401       0.00000000
Si      -1.35632562      -1.33662708      -1.35664730       0.00000000
Si       1.36082099       1.37256282      -1.35637279       0.00000000
Si       1.22116682      -1.51941717       1.38578008       0.00000000
Si       2.20786841       0.16514802       2.74458918       0.00000000
Si      -2.59114020      -0.23648193       2.73117232       0.00000000
Si      -0.00260803      -2.69615790      -2.71384363       0.00000000
Si       2.71271180       0.01853802      -2.71487306       0.00000000
Si      -2.71714335       0.01778868      -2.71477012       0.00000000
Si      -2.71588902      -2.71681362       0.01341686       0.00000000
