10
Lattice="16.28999089631971 0.0 0.0 0.0 16.28999089631971 0.0 0.0 0.0 34.31420841018396" Properties=species:S:1:pos:R:3:initial_magmoms:R:1 pbc="T T T"
Si      -1.35676152      -1.35558864      -1.35819144       0.00000000
Si       1.36016613      -1.35350352       1.35915224       0.00000000
Si       1.35837423       1.35935163      -1.35791693       0.00000000
Si      -1.35834165       1.35977517       1.36093658       0.00000000
Si      -2.71542897      -2.71275415      -0.00065197       0.00000000
Si       0.00166158      -2.71374133      -2.71559366       0.00000000
Si      -2.71438641       0.00200367      -2.71531914       0.00000000
Si      -2.71397916       2.71588509      -0.00058334       0.00000000
Si       2.71676475      -2.71333082      -0.00082354       0.00000000
Si       2.71551042       2.71604799      -0.00113237       0.00000000
