10
Lattice="16.28999089631971 0.0 0.0 0.0 16.28999089631971 0.0 0.0 0.0 34.31420841018396" Properties=species:S:1:pos:R:3:initial_magmoms:R:1 pbc="T T T"
Si      -1.46489454      -1.72885770       0.68803458       0.00000000
Si       1.67790258      -0.10067220       1.67436274       0.00000000
Si      -1.25835363       2.01929211       0.25516060       0.00000000
Si       0.90318276       0.38152809      -2.21000783       0.00000000
Si       2.80448640       1.65936456      -1.36646117       0.00000000
Si      -0.78278337       2.24767791       2.63375422       0.00000000
Si       0.27476343       0.31742694       3.59678302       0.00000000
Si      -0.82740168       3.35515356      -1.62601399       0.00000000
Si       2.59335171      -2.29579857       1.63946517       0.00000000
Si       3.30634450       1.60055766       1.12619295       0.00000000
