10
Lattice="16.28999089631971 0.0 0.0 0.0 16.28999089631971 0.0 0.0 0.0 34.31420841018396" Properties=species:S:1:pos:R:3:initial_magmoms:R:1 pbc="T T T"
Si      -1.65959262       0.58411053       1.51994871       0.00000000
Si       0.03749958       0.18709065      -2.35392170       0.00000000
Si      -0.05905125      -2.33021934       0.38881451       0.00000000
Si       2.04864669       0.91647540       0.83555144       0.00000000
Si       2.22557238      -2.71601541       0.20859619       0.00000000
Si       1.64667465       1.96170696      -2.49769831       0.00000000
Si      -3.42686214      -0.76580919       0.87741480       0.00000000
Si      -1.00284498      -0.49327749       3.51573282       0.00000000
Si       3.20937435      -1.00740618       1.54307650       0.00000000
Si      -0.81063927      -2.63044404       2.60376359       0.00000000
