10
Lattice="16.28999089631971 0.0 0.0 0.0 16.28999089631971 0.0 0.0 0.0 34.31420841018396" Properties=species:S:1:pos:R:3:initial_magmoms:R:1 pbc="T T T"
Si      -1.39185018      -0.75878820       1.76996217       0.00000000
Si      -1.79382222       0.28644336      -1.56328758       0.00000000
Si       0.97176107       2.05566768       0.77659960       0.00000000
Si       1.76042187      -1.63637937      -0.36994169       0.00000000
Si      -0.23112252      -2.68266978       2.47748723       0.00000000
Si      -2.65193055       2.46330864      -0.81074226       0.00000000
Si       2.07022184      -2.55041127       1.85533597       0.00000000
Si       3.24997622       1.65784959       1.16054149       0.00000000
Si       0.89752917      -3.13292538      -2.02066192       0.00000000
Si       0.57352922       3.73518297      -0.86626268       0.00000000
