10
Lattice="16.28999089631971 0.0 0.0 0.0 16.28999089631971 0.0 0.0 0.0 34.31420841018396" Properties=species:S:1:pos:R:3:initial_magmoms:R:1 pbc="T T T"
Si       1.76825899      -0.08643474       1.61036670       0.00000000
Si       0.81370179       0.44515683      -2.21415985       0.00000000
Si      -1.42079751       1.81677483       0.70378481       0.00000000
Si      -1.12146876      -2.10885453      -0.43215338       0.00000000
Si       0.04526991      -1.07193087       2.92392018       0.00000000
Si      -3.39851754       0.95928552      -0.24150353       0.00000000
Si      -0.84664017      -3.03044499       1.71048196       0.00000000
Si      -3.20631183      -1.17788103      -1.15347276       0.00000000
Si      -0.17010018      -1.26345240      -3.54864016       0.00000000
Si      -0.97081884       3.54546963      -0.84539963       0.00000000
