10
Lattice="16.28999089631971 0.0 0.0 0.0 16.28999089631971 0.0 0.0 0.0 34.31420841018396" Properties=species:S:1:pos:R:3:initial_magmoms:R:1 pbc="T T T"
Si       1.05099822      -1.53875340      -1.42949641       0.00000000
Si      -1.32007874      -1.87154181       0.62630328       0.00000000
Si      -1.47211331       1.17745749      -1.49479638       0.00000000
Si       1.25917139       0.33073587       2.48503636       0.00000000
Si       1.97355468      -1.86983136       2.15953160       0.00000000
Si       1.23003346      -3.24697167       0.35264732       0.00000000
Si       2.34019371      -0.10547775      -2.84018862       0.00000000
Si      -2.41738943       2.84203485      -0.07000102       0.00000000
Si      -1.76416043      -1.76981076       2.86705666       0.00000000
Si      -0.72722048       0.16470819       3.77947197       0.00000000
