10
Lattice="16.28999089631971 0.0 0.0 0.0 16.28999089631971 0.0 0.0 0.0 34.31420841018396" Properties=species:S:1:pos:R:3:initial_magmoms:R:1 pbc="T T T"
Si       1.87864425       1.18982160       0.59092531       0.00000000
Si      -0.44997867      -1.72869480       1.54918443       0.00000000
Si       0.62379297      -1.17643122      -2.07628528       0.00000000
Si      -1.80242334       1.72727757      -0.15129143       0.00000000
Si      -2.42769870      -2.58618411       0.60389609       0.00000000
Si      -3.08444634      -1.50879609      -1.39188801       0.00000000
Si       0.97081884      -3.54546963       0.84539963       0.00000000
Si       1.78452063      -3.10031280      -1.36876022       0.00000000
Si      -1.42485372      -2.09290662      -2.91183672       0.00000000
Si      -1.00833471       2.94052419      -2.33624987       0.00000000
