10
Lattice="16.28999089631971 0.0 0.0 0.0 16.28999089631971 0.0 0.0 0.0 34.31420841018396" Properties=species:S:1:pos:R:3:initial_magmoms:R:1 pbc="T T T"
Si       1.35637335       1.35684297       1.35805419       0.00000000
Si       1.35745337      -1.35795069      -1.35719633       0.00000000
Si      -1.35766187       1.35707103      -1.35801987       0.00000000
Si      -1.35828089      -1.35811359       1.35661299       0.00000000
Si       0.00253684      -2.71252935       2.71473580       0.00000000
Si       2.71517112      -0.00017919      -2.71391226       0.00000000
Si      -0.00175788      -2.71507059      -2.71442697       0.00000000
Si       2.71515483       2.71458189       0.00003431       0.00000000
Si      -0.00024875       2.71419093      -2.71569660       0.00000000
Si       2.71499193      -2.71492398      -0.00034314       0.00000000
