10
Lattice="16.28999089631971 0.0 0.0 0.0 16.28999089631971 0.0 0.0 0.0 34.31420841018396" Properties=species:S:1:pos:R:3:initial_magmoms:R:1 pbc="T T T"
Si       0.19161927       0.27898254       2.33882344       0.00000000
Si       0.77765202      -2.13609141      -0.66638230       0.00000000
Si       1.39859424       1.49415138      -1.25353305       0.00000000
Si      -2.21887230       0.26974611      -0.87707166       0.00000000
Si       1.22803794      -3.02950017       1.52989984       0.00000000
Si       1.34776944       0.21030390      -3.45036421       0.00000000
Si      -0.02300148      -1.86931008       3.25336623       0.00000000
Si      -1.12517473       2.12359698       2.89268939       0.00000000
Si      -2.92186304       2.45487042      -0.19682641       0.00000000
Si       0.63936621       3.75585498      -0.38452523       0.00000000
