10
Lattice="16.28999089631971 0.0 0.0 0.0 16.28999089631971 0.0 0.0 0.0 34.31420841018396" Properties=species:S:1:pos:R:3:initial_magmoms:R:1 pbc="T T T"
Si       1.68642225      -0.68463612      -1.58744480       0.00000000
Si       1.68365295       1.11118977       1.33711706       0.00000000
Si      -1.15548554      -1.76316444       1.28199125       0.00000000
Si      -2.00769526       1.62215820       0.15638301       0.00000000
Si       0.27849384       2.38291749       2.73256002       0.00000000
Si      -2.46137732      -0.34085196       2.71102098       0.00000000
Si      -2.88239237       1.24219395      -1.93055276       0.00000000
Si       2.62369998       2.69229717      -0.25234683       0.00000000
Si       2.80968291      -2.56111380      -0.44155548       0.00000000
Si      -1.05000453       3.60888660       1.25736736       0.00000000
