10
Lattice="16.28999089631971 0.0 0.0 0.0 16.28999089631971 0.0 0.0 0.0 34.31420841018396" Properties=species:S:1:pos:R:3:initial_magmoms:R:1 pbc="T T T"
Si      -1.60995618      -1.10441313      -1.25857724       0.00000000
Si       2.06843904      -0.09528021      -1.12005070       0.00000000
Si       0.47428335      -1.21564125       1.97746031       0.00000000
Si      -0.89966575       2.15222733       0.50325246       0.00000000
Si       3.48361650       0.27616437       0.73264307       0.00000000
Si      -3.30684461      -1.66478913       0.36904952       0.00000000
Si      -0.58485335      -3.02980968      -2.20877252       0.00000000
Si      -2.26720052       1.89063436       2.39022615       0.00000000
Si      -2.17260449       0.29035296      -3.16466395       0.00000000
Si       2.65507452      -0.69494769       2.72434379       0.00000000
