10
Lattice="16.28999089631971 0.0 0.0 0.0 16.28999089631971 0.0 0.0 0.0 34.25627252547053" Properties=species:S:1:pos:R:3:initial_magmoms:R:1 pbc="T T T"
Si       2.26372356      -0.71607582       0.19622004       0.00000000
Si      -0.75232107       0.45486567       2.24056701       0.00000000
Si      -0.20000862       2.03608710      -1.30728860       0.00000000
Si      -1.09097388      -1.88081082      -1.11428866       0.00000000
Si      -1.37525067       1.17084375      -3.15860137       0.00000000
Si      -2.66629833      -0.64428579      -2.40855987       0.00000000
Si       2.22456240      -2.62629009       1.67472159       0.00000000
Si       0.90104877       1.86095331       3.22457899       0.00000000
Si       2.04268455       2.55523311      -2.12875448       0.00000000
Si       3.65511762       1.13052600       0.97332402       0.00000000
