10
Lattice="16.28999089631971 0.0 0.0 0.0 16.28999089631971 0.0 0.0 0.0 34.25627252547053" Properties=species:S:1:pos:R:3:initial_magmoms:R:1 pbc="T T T"
Si       1.37541357      -1.27666589       1.36992281       0.00000000
Si      -1.19746161      -1.49827505      -1.38961473       0.00000000
Si      -1.35454608       1.44657318       1.34326113       0.00000000
Si       1.00600524       1.58285532      -1.61104740       0.00000000
Si      -1.42060203       0.35346368      -2.81584118       0.00000000
Si       2.07021465      -0.25991509      -2.69498498       0.00000000
Si       2.57838120       2.69692842      -0.04175499       0.00000000
Si      -0.01355328      -2.61135446       2.71985364       0.00000000
Si      -2.74802526      -2.63448626      -0.04571845       0.00000000
Si       2.73551454      -2.66990072      -0.03170077       0.00000000
