10
Lattice="16.28999089631971 0.0 0.0 0.0 16.28999089631971 0.0 0.0 0.0 34.25627252547053" Properties=species:S:1:pos:R:3:initial_magmoms:R:1 pbc="T T T"
Si      -1.35518139      -1.35749454      -1.35826196       0.00000000
Si      -1.35742941       1.35706614       1.35754258       0.00000000
Si       1.35746199      -1.35760092       1.35774812       0.00000000
Si       1.35824391       1.35856482      -1.35791940       0.00000000
Si       2.71296918       0.00034535       2.71463983       0.00000000
Si      -0.00123804      -2.71594603      -2.71200210       0.00000000
Si       0.00120546       2.71397427       2.71463983       0.00000000
Si       2.71516833       2.71456071       0.00027405       0.00000000
Si       2.71474479      -2.71506637       0.00030831       0.00000000
Si      -2.71495656      -2.71514782       0.00000000       0.00000000
