10
Lattice="16.28999089631971 0.0 0.0 0.0 16.28999089631971 0.0 0.0 0.0 34.25627252547053" Properties=species:S:1:pos:R:3:initial_magmoms:R:1 pbc="T T T"
Si       1.33631757       1.35923923      -1.38748258       0.00000000
Si      -1.32815628       1.21310164       1.53409951       0.00000000
Si      -1.37499003      -1.35777359      -1.38220711       0.00000000
Si       1.42286634      -1.24516280       1.61007996       0.00000000
Si      -0.33016572      -2.36244652       2.77647244       0.00000000
Si      -1.95177006      -0.65904942       3.02931813       0.00000000
Si       2.67954210      -2.69539783       0.00345989       0.00000000
Si       2.68177383       2.70106282      -0.02051952       0.00000000
Si       2.69246007       0.00216005      -2.74259297       0.00000000
Si      -2.73610098       2.70060670       0.01493574       0.00000000
