10
Lattice="16.28999089631971 0.0 0.0 0.0 16.28999089631971 0.0 0.0 0.0 34.25627252547053" Properties=species:S:1:pos:R:3:initial_magmoms:R:1 pbc="T T T"
Si       1.00838358      -0.78307659      -1.95247160       0.00000000
Si      -0.72268956      -2.16501430       0.54758682       0.00000000
Si      -2.00505465       1.18125306      -0.37764136       0.00000000
Si       1.46927655       1.48908519       1.15320380       0.00000000
Si       0.73686186       3.35883510      -0.12311711       0.00000000
Si       2.56235184      -2.36474111      -1.24066012       0.00000000
Si       1.32201495       1.03752639      -3.38301434       0.00000000
Si      -0.55275228      -2.26719333      -2.99341753       0.00000000
Si       1.11988863      -3.65240438       0.16148416       0.00000000
Si      -1.58405589       3.50008569       0.16497830       0.00000000
