10
Lattice="16.28999089631971 0.0 0.0 0.0 16.28999089631971 0.0 0.0 0.0 34.25627252547053" Properties=species:S:1:pos:R:3:initial_magmoms:R:1 pbc="T T T"
Si      -1.30650687       1.63937673      -1.06074607       0.00000000
Si      -1.53358947      -0.70829734       1.65844985       0.00000000
Si       1.56113586       1.48411674       1.04094593       0.00000000
Si       1.04019795      -1.70208413      -1.39162759       0.00000000
Si       0.39687327       2.77377975      -2.15184322       0.00000000
Si      -0.16993728       0.10217903       3.54100436       0.00000000
Si       3.11510412      -0.09754778       1.75275742       0.00000000
Si       0.55275228       2.26719333       2.99341753       0.00000000
Si       1.87476723       3.30471972      -0.38959681       0.00000000
Si       1.67264091      -1.38521105       3.15490169       0.00000000
