10
Lattice="16.28999089631971 0.0 0.0 0.0 16.28999089631971 0.0 0.0 0.0 34.25627252547053" Properties=species:S:1:pos:R:3:initial_magmoms:R:1 pbc="T T T"
Si      -0.91422738       2.20405329       0.43584280       0.00000000
Si       1.57856616      -0.73199115      -1.69849545       0.00000000
Si      -0.02013444      -1.96172325       1.68112751       0.00000000
Si      -2.36975517      -1.19322621       0.41881742       0.00000000
Si      -1.58558715       2.30584950      -1.81616582       0.00000000
Si       1.38469887      -3.11598378       0.23777292       0.00000000
Si       1.32395346      -0.76963734       3.21241801       0.00000000
Si       3.26247975      -1.56489885      -0.07772753       0.00000000
Si      -3.12901578       0.36113301       2.09090127       0.00000000
Si       0.30876066      -2.32336125      -2.97961225       0.00000000
