10
Lattice="16.28999089631971 0.0 0.0 0.0 16.28999089631971 0.0 0.0 0.0 34.25627252547053" Properties=species:S:1:pos:R:3:initial_magmoms:R:1 pbc="T T T"
Si       2.27076084       0.48260754      -0.18700510       0.00000000
Si      -0.31363137      -1.82060298       1.43054274       0.00000000
Si      -0.99502578       1.93332978       0.91375232       0.00000000
Si      -1.47789396      -0.53093997      -1.76224641       0.00000000
Si       2.55448377      -0.24394275      -2.36597930       0.00000000
Si      -1.83308112       1.58102595      -2.63115725       0.00000000
Si      -3.18127410      -1.66534299      -0.67114927       0.00000000
Si      -1.32201495      -1.03752639       3.38301434       0.00000000
Si      -1.87476723      -3.30471972       0.38959681       0.00000000
Si       3.62944458      -1.34698752       0.51949666       0.00000000
