10
Lattice="16.28999089631971 0.0 0.0 0.0 16.28999089631971 0.0 0.0 0.0 34.25627252547053" Properties=species:S:1:pos:R:3:initial_magmoms:R:1 pbc="T T T"
Si       1.35593073      -1.35734796      -1.35713151       0.00000000
Si      -1.35778779      -1.35744570       1.35747407       0.00000000
Si       1.35760860       1.35791811       1.35737130       0.00000000
Si      -1.35519768       1.35881406      -1.36196164       0.00000000
Si       2.71743264      -0.00834048      -2.70667525       0.00000000
Si      -0.00034209      -2.71445157       2.71474260       0.00000000
Si       2.71469592       0.00079821       2.71474260       0.00000000
Si      -2.71477737       0.00066789       2.71491388       0.00000000
Si      -2.71565703      -2.71456560       0.00034256       0.00000000
Si      -0.00037467       2.71580364       2.71453706       0.00000000
