10
Lattice="16.28999089631971 0.0 0.0 0.0 16.28999089631971 0.0 0.0 0.0 34.25627252547053" Properties=species:S:1:pos:R:3:initial_magmoms:R:1 pbc="T T T"
Si       1.56393774       1.18802970       1.30567856       0.00000000
Si      -1.00579347      -1.53380124       1.48768223       0.00000000
Si       1.42563564      -1.30093569      -1.36802501       0.00000000
Si      -1.30632768       1.42941492      -1.37244407       0.00000000
Si       1.07326665      -2.62080036       2.17828907       0.00000000
Si      -2.63332737      -2.55806757       0.05912636       0.00000000
Si      -2.02580811      -0.07586253       3.06162181       0.00000000
Si       0.06243957      -2.65592160      -2.74382619       0.00000000
Si      -2.66111811       0.06261876      -2.74430578       0.00000000
Si      -2.62876617       2.77496892       0.12407629       0.00000000
