10
Lattice="16.28999089631971 0.0 0.0 0.0 16.28999089631971 0.0 0.0 0.0 34.25627252547053" Properties=species:S:1:pos:R:3:initial_magmoms:R:1 pbc="T T T"
Si       1.87535367       0.81565659      -1.25998066       0.00000000
Si      -0.41647014       1.89584649       1.42882993       0.00000000
Si       0.41449905      -2.11550085       1.13473966       0.00000000
Si      -1.66058631      -0.65029680      -1.80263458       0.00000000
Si      -3.00643353      -2.02820274      -0.29768717       0.00000000
Si      -1.26066681       3.49106103      -0.14596606       0.00000000
Si       1.65690477      -3.37290966      -0.35602564       0.00000000
Si       1.57978791       1.96079472       2.84155939       0.00000000
Si      -1.77259635      -3.07501443       1.48107077       0.00000000
Si       3.86086032       0.67711014      -0.14082762       0.00000000
