10
Lattice="16.28999089631971 0.0 0.0 0.0 16.28999089631971 0.0 0.0 0.0 34.25627252547053" Properties=species:S:1:pos:R:3:initial_magmoms:R:1 pbc="T T T"
Si      -0.37349712       1.21790556       2.03218599       0.00000000
Si      -1.23383718       1.04681169      -1.77875794       0.00000000
Si       2.18709540       0.95951358      -0.34633111       0.00000000
Si      -0.62494956      -2.28296205       0.68402963       0.00000000
Si      -1.69183053      -1.20111057      -2.75667230       0.00000000
Si       0.93146220      -0.23278410       3.40973425       0.00000000
Si      -0.45408375      -2.03639661       2.97498765       0.00000000
Si      -3.50288757      -0.72343890      -1.27244995       0.00000000
Si      -2.67428043       1.02206718       2.52520254       0.00000000
Si       1.77259635       3.07501443      -1.48107077       0.00000000
