10
Lattice="16.28999089631971 0.0 0.0 0.0 16.28999089631971 0.0 0.0 0.0 34.25627252547053" Properties=species:S:1:pos:R:3:initial_magmoms:R:1 pbc="T T T"
Si      -1.64296053       1.50136785      -0.76987590       0.00000000
Si       1.92453318       0.75069207      -1.16735165       0.00000000
Si      -0.56317788      -2.17624626      -0.76655304       0.00000000
Si       0.15395679       0.83914677       2.52592192       0.00000000
Si      -0.42451740       3.42034614      -0.11626585       0.00000000
Si      -2.88409563      -2.03499567      -0.47845763       0.00000000
Si       3.75735366      -0.23115510      -0.10431041       0.00000000
Si      -1.98881352       0.99388548      -3.05384563       0.00000000
Si       1.85517036       3.12667002      -1.21945547       0.00000000
Si       1.77657111       0.21326868      -3.45111585       0.00000000
