10
Lattice="16.28999089631971 0.0 0.0 0.0 16.28999089631971 0.0 0.0 0.0 34.25627252547053" Properties=species:S:1:pos:R:3:initial_magmoms:R:1 pbc="T T T"
Si       1.50617340       0.95931810       1.55945743       0.00000000
Si       1.02270249      -1.84800276      -1.09294699       0.00000000
Si      -1.15289217      -1.56006072       1.40799666       0.00000000
Si      -0.50678190       1.48170582      -1.95329375       0.00000000
Si       1.50386022       2.90945916      -1.68684831       0.00000000
Si       3.10788765       2.02716018       0.28399155       0.00000000
Si       0.18093303       2.31616107       2.91709250       0.00000000
Si      -2.63917548      -2.68640019      -0.06443608       0.00000000
Si      -2.53412127      -0.38454174       2.89800832       0.00000000
Si      -0.67150638      -3.54100617      -1.48401681       0.00000000
