10
Lattice="16.28999089631971 0.0 0.0 0.0 16.28999089631971 0.0 0.0 0.0 34.25627252547053" Properties=species:S:1:pos:R:3:initial_magmoms:R:1 pbc="T T T"
Si      -1.34703639      -1.34920296      -1.36040641       0.00000000
Si      -1.35394335       1.35845149       1.35374013       0.00000000
Si       1.35778779      -1.35532800       1.35463080       0.00000000
Si       1.38896685       1.33468857      -1.34993083       0.00000000
Si       0.01355328       2.61135446      -2.71985364       0.00000000
Si      -2.71150308      -2.71334385      -0.00719382       0.00000000
Si      -2.71371852       0.00079821       2.71200210       0.00000000
Si       0.00130320      -2.71423980       2.71213912       0.00000000
Si       0.00123804       2.71594603       2.71200210       0.00000000
Si       2.71598283       0.00087966       2.71231041       0.00000000
