10
Lattice="16.28999089631971 0.0 0.0 0.0 16.28999089631971 0.0 0.0 0.0 34.25627252547053" Properties=species:S:1:pos:R:3:initial_magmoms:R:1 pbc="T T T"
Si       1.61396433       1.58691774      -0.54758682       0.00000000
Si       0.84419667      -1.59521454       1.57479598       0.00000000
Si      -2.31163245       0.30059937       0.61195439       0.00000000
Si       0.01721853       0.41984217      -3.30271759       0.00000000
Si       0.09516618       3.20276780      -1.32770535       0.00000000
Si      -1.93927563       2.48284428       1.53074239       0.00000000
Si      -0.17120790       1.98867084       2.95374875       0.00000000
Si      -0.89863785      -1.56859668       3.21241801       0.00000000
Si       1.26066681      -3.49106103       0.14596606       0.00000000
Si       3.10189293       1.77409407       1.37275238       0.00000000
