10
Lattice="16.28999089631971 0.0 0.0 0.0 16.28999089631971 0.0 0.0 0.0 34.25627252547053" Properties=species:S:1:pos:R:3:initial_magmoms:R:1 pbc="T T T"
Si       0.77688639      -1.74804732       1.36939526       0.00000000
Si       1.74283452      -0.02661786      -1.63762202       0.00000000
Si      -0.42696090       2.05806231       1.18989229       0.00000000
Si      -2.05307757      -0.08350254      -1.27745137       0.00000000
Si      -1.41299460       1.86919605      -2.60046361       0.00000000
Si       0.72742995       3.55726752      -0.25866926       0.00000000
Si      -2.66965407       1.53891630       2.01135817       0.00000000
Si       0.89863785       1.56859668      -3.21241801       0.00000000
Si      -0.20592189      -1.21324662       3.51486681       0.00000000
Si       3.73909257       0.03833037      -0.22489255       0.00000000
