10
Lattice="16.28999089631971 0.0 0.0 0.0 16.28999089631971 0.0 0.0 0.0 34.25627252547053" Properties=species:S:1:pos:R:3:initial_magmoms:R:1 pbc="T T T"
Si       1.35356868       1.35931905       1.36755227       0.00000000
Si      -1.35795069      -1.35761186       1.37087513       0.00000000
Si      -1.48489866       1.23632955      -1.38830131       0.00000000
Si       1.36987497      -1.33692845      -1.41810428       0.00000000
Si      -0.18999027      -2.57130303      -2.69627151       0.00000000
Si       2.69048898      -2.71834073       0.01463771       0.00000000
Si      -2.68786629      -2.73726476       0.02337649       0.00000000
Si       2.71476108       2.71531494      -0.02116354       0.00000000
Si       2.70995553      -0.00039096       2.72773259       0.00000000
Si      -0.00379557      -2.71543084       2.72872602       0.00000000
