10
Lattice="16.28999089631971 0.0 0.0 0.0 16.28999089631971 0.0 0.0 0.0 34.25627252547053" Properties=species:S:1:pos:R:3:initial_magmoms:R:1 pbc="T T T"
Si      -1.75303206      -1.11728371       1.16639248       0.00000000
Si      -1.42286634       1.24516280      -1.61007996       0.00000000
Si       1.25667576      -1.45023502      -1.60662008       0.00000000
Si       1.61424126       1.21295584       1.56708832       0.00000000
Si       2.57015475       2.61942141      -0.14168402       0.00000000
Si      -2.75102262       2.45826444      -0.07598045       0.00000000
Si      -3.37463640       0.58611339       1.41923816       0.00000000
Si       2.58818778      -2.85896164      -0.25161246       0.00000000
Si      -0.15628626       0.04979185       3.92152325       0.00000000
Si      -1.67508441       1.66564191       3.14140471       0.00000000
