10
Lattice="16.28999089631971 0.0 0.0 0.0 16.28999089631971 0.0 0.0 0.0 34.25627252547053" Properties=species:S:1:pos:R:3:initial_magmoms:R:1 pbc="T T T"
Si      -0.16162938      -0.70651359      -2.20726990       0.00000000
Si       2.00124931       1.03938345       0.63987327       0.00000000
Si      -0.11320410      -2.02962323       1.20599275       0.00000000
Si      -2.04428164       1.13467995       0.57732128       0.00000000
Si       1.71431725      -0.89884962       2.24005317       0.00000000
Si      -2.47267606      -1.24382295      -2.09871171       0.00000000
Si       1.21230343       3.23213148       0.97089182       0.00000000
Si      -3.35732080       0.80234766      -1.34719718       0.00000000
Si       0.52802080       1.15385328      -3.49849230       0.00000000
Si       1.31640142      -2.49028814      -2.71299553       0.00000000
