10
Lattice="16.28999089631971 0.0 0.0 0.0 16.28999089631971 0.0 0.0 0.0 34.25627252547053" Properties=species:S:1:pos:R:3:initial_magmoms:R:1 pbc="T T T"
Si      -1.55396826       1.58166452      -0.71181148       0.00000000
Si       1.79250273       0.20182007       1.50484464       0.00000000
Si      -1.44246321      -1.28766327       1.40214427       0.00000000
Si       1.31176854      -0.20873843      -2.15002763       0.00000000
Si       2.76482025      -1.79465694       0.64244249       0.00000000
Si       2.42362620       2.32390208       0.74312174       0.00000000
Si       2.02002516      -2.38041276      -1.54670583       0.00000000
Si       2.38910769       2.05527998      -1.62285756       0.00000000
Si      -3.11510412       0.09754778      -1.75275742       0.00000000
Si      -2.56235184       2.36474111       1.24066012       0.00000000
