10
Lattice="16.28999089631971 0.0 0.0 0.0 16.28999089631971 0.0 0.0 0.0 34.25627252547053" Properties=species:S:1:pos:R:3:initial_magmoms:R:1 pbc="T T T"
Si      -1.76933835      -0.65035870       1.38426249       0.00000000
Si      -0.27883593      -0.16390998      -2.32836589       0.00000000
Si       1.44458091      -1.82678408       0.85263910       0.00000000
Si       0.57762711       2.36799585       0.48818641       0.00000000
Si       2.76957693       1.16898669       0.21742468       0.00000000
Si       0.03373659      -1.50114777       2.72952228       0.00000000
Si      -2.55349008      -2.45634371      -0.18652551       0.00000000
Si       0.35228754       1.95817203      -3.09008879       0.00000000
Si      -0.75258171       3.31970652      -1.43420816       0.00000000
Si       0.69348159      -2.16038699      -3.19076803       0.00000000
