10
Lattice="16.28999089631971 0.0 0.0 0.0 16.28999089631971 0.0 0.0 0.0 34.25627252547053" Properties=species:S:1:pos:R:3:initial_magmoms:R:1 pbc="T T T"
Si      -1.24014141       1.42886106       1.47232171       0.00000000
Si       1.48504527      -1.26473931       1.44489613       0.00000000
Si      -1.47901797      -1.36764324      -1.37865957       0.00000000
Si       0.76121541       2.02957110      -1.16433025       0.00000000
Si       0.47024343       0.53900352      -3.42680899       0.00000000
Si      -2.62018134       2.80064196       0.12982449       0.00000000
Si      -2.59035435       0.09505215       2.83833930       0.00000000
Si      -2.71461447      -2.74372470       0.07775836       0.00000000
Si       0.12385287      -2.62073520       2.83361193       0.00000000
Si       2.71642266       2.76879501       0.12744026       0.00000000
