10
Lattice="16.28999089631971 0.0 0.0 0.0 16.28999089631971 0.0 0.0 0.0 34.25627252547053" Properties=species:S:1:pos:R:3:initial_magmoms:R:1 pbc="T T T"
Si       2.14358481       0.41629095       0.67433510       0.00000000
Si      -1.24240572       1.25740881       1.49076530       0.00000000
Si      -0.21841632       0.17767503      -2.32994168       0.00000000
Si       0.77947650      -1.95659190       1.35661766       0.00000000
Si       0.50360535      -1.81615581      -3.25801313       0.00000000
Si      -1.65690477       3.37290966       0.35602564       0.00000000
Si       0.17743068       1.65107295       3.44241475       0.00000000
Si      -3.42950112       0.29789523       1.83709641       0.00000000
Si       2.49165324       1.10006370       2.87855619       0.00000000
Si      -0.70384203      -3.80047329       0.95355813       0.00000000
