10
Lattice="16.28999089631971 0.0 0.0 0.0 16.28999089631971 0.0 0.0 0.0 34.25627252547053" Properties=species:S:1:pos:R:3:initial_magmoms:R:1 pbc="T T T"
Si      -1.23559650      -1.37608146       1.45641793       0.00000000
Si      -1.62463428       1.36096434      -1.14392035       0.00000000
Si       1.47901797       1.36764324       1.37865957       0.00000000
Si       0.60320241      -1.31457042      -2.09288814       0.00000000
Si       1.94926140       1.90664676      -2.04814942       0.00000000
Si      -0.21693393       1.82353518      -3.13976041       0.00000000
Si      -3.31884315      -0.33203907      -1.53499017       0.00000000
Si      -2.80797246      -2.49015456      -0.11287448       0.00000000
Si      -2.47665015       0.11352501       2.83108866       0.00000000
Si       0.24930216      -2.61241101       2.84471923       0.00000000
