10
Lattice="16.28999089631971 0.0 0.0 0.0 16.28999089631971 0.0 0.0 0.0 34.25627252547053" Properties=species:S:1:pos:R:3:initial_magmoms:R:1 pbc="T T T"
Si       1.35674523       1.35764118       1.35675469       0.00000000
Si       1.35705474      -1.35721764      -1.35702874       0.00000000
Si      -1.35822762       1.35778779      -1.35713151       0.00000000
Si      -1.35870003      -1.35816246       1.35726853       0.00000000
Si      -0.00070047      -2.71362078      -2.71457132       0.00000000
Si      -2.71130760      -0.00259011       2.71690075       0.00000000
Si       2.71381626       0.00141723      -2.71450281       0.00000000
Si       0.00187335       2.71437012       2.71426301       0.00000000
Si       0.00042354      -2.71274112       2.71601009       0.00000000
Si       2.71459818      -2.71433754      -0.00027405       0.00000000
