10
Lattice="16.28999089631971 0.0 0.0 0.0 16.28999089631971 0.0 0.0 0.0 34.25627252547053" Properties=species:S:1:pos:R:3:initial_magmoms:R:1 pbc="T T T"
Si       1.98550665      -0.13854645       1.11915305       0.00000000
Si       0.05380587      -0.20206116      -2.29859717       0.00000000
Si      -1.87535367      -0.81565659       1.25998066       0.00000000
Si      -2.29182381       1.08018990       2.68881059       0.00000000
Si      -3.53593998      -1.46595339      -0.54265392       0.00000000
Si       1.93391622       0.44613423       3.39767603       0.00000000
Si       1.22241789       1.35356868      -3.60670792       0.00000000
Si      -1.46085462      -2.93115744       2.39472033       0.00000000
Si       4.03368093      -0.64534464       0.09331414       0.00000000
Si      -1.51013187      -1.39009086      -3.60427573       0.00000000
