10
Lattice="16.28999089631971 0.0 0.0 0.0 16.28999089631971 0.0 0.0 0.0 34.25627252547053" Properties=species:S:1:pos:R:3:initial_magmoms:R:1 pbc="T T T"
Si       2.27607138       0.31623777      -0.55964504       0.00000000
Si       0.20256615      -0.91873971      -2.18414690       0.00000000
Si      -0.57692175      -1.83301759       1.54092135       0.00000000
Si      -1.41617278       2.00520126       0.25027647       0.00000000
Si       2.55171447       1.04011650       1.65274759       0.00000000
Si      -1.83352854      -0.49770837       3.06729949       0.00000000
Si      -3.13050536       0.85315617       1.59479964       0.00000000
Si      -2.52756359      -2.85051868       0.46278438       0.00000000
Si       0.89753013       2.20960818       3.05920130       0.00000000
Si      -0.36927964       3.56659776       1.63439306       0.00000000
