10
Lattice="16.28999089631971 0.0 0.0 0.0 16.28999089631971 0.0 0.0 0.0 34.25627252547053" Properties=species:S:1:pos:R:3:initial_magmoms:R:1 pbc="T T T"
Si       2.28662730       0.47459286       0.22232333       0.00000000
Si      -0.68141070       1.92021633       1.23651510       0.00000000
Si      -0.90934038       0.14105511      -2.21199727       0.00000000
Si      -0.58717305      -2.03297571       1.13121126       0.00000000
Si      -0.50857380       0.88042563       3.36287164       0.00000000
Si      -0.43921098      -1.49555232       3.41497546       0.00000000
Si       2.47880043       2.80306917      -0.36236305       0.00000000
Si      -0.11383452      -1.77319908      -3.44494972       0.00000000
Si      -2.75753862      -2.70694188       0.61044712       0.00000000
Si      -2.92200246       2.50445718       0.82708391       0.00000000
