10
Lattice="16.28999089631971 0.0 0.0 0.0 16.28999089631971 0.0 0.0 0.0 34.25627252547053" Properties=species:S:1:pos:R:3:initial_magmoms:R:1 pbc="T T T"
Si       1.33726239       1.34952381      -1.36007412       0.00000000
Si      -1.35509994      -1.35474156      -1.34774186       0.00000000
Si      -1.35702216       1.35243369       1.35401418       0.00000000
Si       1.35855342      -1.36112724       1.35432249       0.00000000
Si       2.60938107      -0.11720655      -2.63796398       0.00000000
Si      -0.02371824      -2.74848138      -2.65843896       0.00000000
Si      -2.71117728       2.71025268      -0.00383670       0.00000000
Si       0.00118917       2.71143045       2.71090590       0.00000000
Si      -2.71407690      -0.00320913       2.71090590       0.00000000
Si       2.71575477      -0.00332316       2.71094015       0.00000000
