10
Lattice="16.28999089631971 0.0 0.0 0.0 16.28999089631971 0.0 0.0 0.0 34.25627252547053" Properties=species:S:1:pos:R:3:initial_magmoms:R:1 pbc="T T T"
Si       1.37303523       1.33778367      -1.38213860       0.00000000
Si       1.33151202      -1.40872662       1.35500762       0.00000000
Si      -1.34346888      -1.37472939      -1.38453654       0.00000000
Si      -1.25667576       1.45023502       1.60662008       0.00000000
Si      -2.67954210       2.69539783      -0.00345989       0.00000000
Si      -2.70736542      -2.72297124      -0.01500426       0.00000000
Si       2.73072528       2.70435407       0.00404224       0.00000000
Si       0.01291797       2.69755788      -2.74605285       0.00000000
Si      -2.70027927      -0.01857060      -2.74512793       0.00000000
Si       2.71151937      -2.74253553      -0.03192686       0.00000000
