10
Lattice="16.28999089631971 0.0 0.0 0.0 16.28999089631971 0.0 0.0 0.0 34.25627252547053" Properties=species:S:1:pos:R:3:initial_magmoms:R:1 pbc="T T T"
Si       0.33303276       0.54258732      -2.24234834       0.00000000
Si       1.33276635      -1.09898856       1.61919214       0.00000000
Si      -1.92472866       0.97137174       0.97894205       0.00000000
Si       2.50129692       0.81087615      -0.59684737       0.00000000
Si       2.19548475       2.25449432       1.33503620       0.00000000
Si       0.04331511      -3.03199254       1.88985110       0.00000000
Si      -3.41265726       0.78419541      -0.94139715       0.00000000
Si       0.09490554      -3.61667322      -0.38867189       0.00000000
Si      -1.87387128      -0.06494823       3.16764503       0.00000000
Si       3.54506238      -1.27257480       0.64309336       0.00000000
