10
Lattice="16.28999089631971 0.0 0.0 0.0 16.28999089631971 0.0 0.0 0.0 34.25627252547053" Properties=species:S:1:pos:R:3:initial_magmoms:R:1 pbc="T T T"
Si       2.26118232       0.47356659       0.41426134       0.00000000
Si      -1.56020733       0.96044211       1.51388830       0.00000000
Si      -0.19217313      -2.32847631       0.58468639       0.00000000
Si      -0.17308125       1.23841467      -2.08682478       0.00000000
Si      -0.30757149       3.22402462      -0.72013576       0.00000000
Si       3.12261381      -1.53818325      -0.42590847       0.00000000
Si      -3.16021113      -0.88285284       1.59887816       0.00000000
Si      -2.47880043      -2.80306917       0.36236305       0.00000000
Si       1.29005397      -3.47556924      -0.76884821       0.00000000
Si       2.64329685       0.35925966       2.75495949       0.00000000
