10
Lattice="16.28999089631971 0.0 0.0 0.0 16.28999089631971 0.0 0.0 0.0 34.25627252547053" Properties=species:S:1:pos:R:3:initial_magmoms:R:1 pbc="T T T"
Si       1.79605395      -1.08022248       0.93283308       0.00000000
Si      -1.83901068      -0.46573110       1.36545579       0.00000000
Si       0.58567437       2.01007197      -1.07194788       0.00000000
Si      -1.58628762      -1.45876950      -1.04974980       0.00000000
Si       0.60567849      -3.04605081       1.55475605       0.00000000
Si      -0.15912072       1.42431615      -3.26109620       0.00000000
Si      -1.75912452      -0.41897880      -3.17610634       0.00000000
Si       3.42482589      -1.13156856      -0.79406084       0.00000000
Si      -2.66129730       1.71411525       1.93229464       0.00000000
Si       2.38039254       0.16806393       2.95244701       0.00000000
