10
Lattice="16.28999089631971 0.0 0.0 0.0 16.28999089631971 0.0 0.0 0.0 34.25627252547053" Properties=species:S:1:pos:R:3:initial_magmoms:R:1 pbc="T T T"
Si      -1.35710361       1.35811359       1.36059139       0.00000000
Si       1.35638685      -1.35971001       1.36018032       0.00000000
Si      -1.35356868      -1.35931905      -1.36755227       0.00000000
Si       1.36119240       1.35599589      -1.38871581       0.00000000
Si      -2.71151937      -2.71693091       0.00332286       0.00000000
Si       2.71643895       2.71298547      -0.00075364       0.00000000
Si      -2.71420722       2.71578735       0.00472737       0.00000000
Si      -2.71399545      -0.00076563       2.71803121       0.00000000
Si       0.00065160       2.71451673       2.71813398       0.00000000
Si       2.71625976      -0.00114030       2.71748311       0.00000000
