10
Lattice="16.28999089631971 0.0 0.0 0.0 16.28999089631971 0.0 0.0 0.0 34.25627252547053" Properties=species:S:1:pos:R:3:initial_magmoms:R:1 pbc="T T T"
Si       1.27211868      -1.46673036      -1.27788985       0.00000000
Si      -1.33726239      -1.34952381       1.36007412       0.00000000
Si       1.38258117       1.36287589       1.35452460       0.00000000
Si      -1.32061401       1.38141228      -1.43274199       0.00000000
Si       2.04718059       0.36701280      -2.61940974       0.00000000
Si       0.39861630       2.33267498      -2.85685624       0.00000000
Si      -2.69236233      -2.70426537       0.01233227       0.00000000
Si      -2.69428455       0.00290988       2.71408831       0.00000000
Si      -2.69048898       2.71834073      -0.01463771       0.00000000
Si       0.02129103      -2.71065105       2.71439661       0.00000000
