10
Lattice="16.28999089631971 0.0 0.0 0.0 16.28999089631971 0.0 0.0 0.0 34.25627252547053" Properties=species:S:1:pos:R:3:initial_magmoms:R:1 pbc="T T T"
Si       1.35679410      -1.35689837      -1.35692597       0.00000000
Si      -1.35777150       1.35785524      -1.35696023       0.00000000
Si       1.35772263       1.35775261       1.35754258       0.00000000
Si      -1.35762489      -1.35782690       1.35764535       0.00000000
Si       2.71363076       0.00005560      -2.71450281       0.00000000
Si      -0.00040725      -2.71470245      -2.71354363       0.00000000
Si      -0.00223173       2.71389837      -2.71484537       0.00000000
Si       2.71430054      -2.71453955       0.00020554       0.00000000
Si      -2.71521720      -2.71449068       0.00017128       0.00000000
Si      -2.71598283      -0.00114151      -2.71385194       0.00000000
