10
Lattice="16.28999089631971 0.0 0.0 0.0 16.28999089631971 0.0 0.0 0.0 34.25627252547053" Properties=species:S:1:pos:R:3:initial_magmoms:R:1 pbc="T T T"
Si      -0.41260941      -1.41428151       1.88149256       0.00000000
Si       2.22858603       0.86097537       0.15775022       0.00000000
Si      -1.19804805       2.07591615      -0.18823832       0.00000000
Si       0.02046024      -1.50508197      -1.90985677       0.00000000
Si      -2.71472850      -2.07653517      -0.16141565       0.00000000
Si      -0.11890071       2.94757776      -2.06188620       0.00000000
Si       2.16601614       2.30555628      -1.79482415       0.00000000
Si       3.47273219      -1.06277589      -0.26980255       0.00000000
Si       0.47203533      -3.46045212       1.12997804       0.00000000
Si       0.13224222      -3.70506276      -1.12888184       0.00000000
