10
Lattice="16.28999089631971 0.0 0.0 0.0 16.28999089631971 0.0 0.0 0.0 34.25627252547053" Properties=species:S:1:pos:R:3:initial_magmoms:R:1 pbc="T T T"
Si       1.23787710      -1.39589010      -1.37383487       0.00000000
Si      -1.37875302       1.32890562      -1.31894259       0.00000000
Si      -1.35159759      -1.35601218       1.33562541       0.00000000
Si       1.35920502       1.35928647       1.33819463       0.00000000
Si       0.42725412       2.14501833      -2.58869795       0.00000000
Si      -0.71733015      -2.13511401      -2.66560538       0.00000000
Si       2.29099302       0.13804146      -2.75370027       0.00000000
Si      -2.49701265      -0.29620107      -2.64691651       0.00000000
Si      -2.71156824       0.00039096       2.69231158       0.00000000
Si       0.00272043      -2.71226871       2.69299671       0.00000000
