10
Lattice="16.28999089631971 0.0 0.0 0.0 16.28999089631971 0.0 0.0 0.0 34.25627252547053" Properties=species:S:1:pos:R:3:initial_magmoms:R:1 pbc="T T T"
Si      -1.48222710       1.14709293       1.35353460       0.00000000
Si      -0.42606495       0.29919843      -2.28229118       0.00000000
Si       0.11464902      -2.39417388       0.30611422       0.00000000
Si       1.74610881       0.22012677       1.80345673       0.00000000
Si       1.83255984       1.93738599       0.34293974       0.00000000
Si      -0.14134833       0.30345012       3.23540398       0.00000000
Si       1.80822258       0.39980547      -3.02554994       0.00000000
Si      -1.56846636      -1.65170826      -2.87759701       0.00000000
Si      -1.29005397       3.47556924       0.76884821       0.00000000
Si       3.27771809       1.40214546      -1.42358871       0.00000000
