10
Lattice="16.28999089631971 0.0 0.0 0.0 16.28999089631971 0.0 0.0 0.0 34.25627252547053" Properties=species:S:1:pos:R:3:initial_magmoms:R:1 pbc="T T T"
Si      -1.35759231      -1.35666378      -1.35747407       0.00000000
Si       1.35762489       1.35782690      -1.35764535       0.00000000
Si       1.36182771      -1.35791811       1.35648064       0.00000000
Si      -1.35707103       1.35668007       1.36364020       0.00000000
Si       2.71391400      -2.71340901      -0.00047959       0.00000000
Si      -0.00003258      -2.71396287      -2.71457132       0.00000000
Si       2.71441899       0.00092853      -2.71457132       0.00000000
Si      -2.71435383      -2.71555929      -0.00044533       0.00000000
Si      -2.71541268       0.00104256      -2.71460558       0.00000000
Si      -0.00014661       2.71568214      -2.71460558       0.00000000
