10
Lattice="16.28999089631971 0.0 0.0 0.0 16.28999089631971 0.0 0.0 0.0 34.25627252547053" Properties=species:S:1:pos:R:3:initial_magmoms:R:1 pbc="T T T"
Si      -1.35208629       1.35549090       1.35696023       0.00000000
Si      -1.35645201      -1.35811359      -1.35696023       0.00000000
Si       1.35801143       1.35669636      -1.35696023       0.00000000
Si       1.35879026      -1.35889551       1.35942668       0.00000000
Si       0.01655064       2.68957674       2.72755446       0.00000000
Si      -2.71391400       2.71340901       0.00047959       0.00000000
Si      -2.71394658      -0.00055386      -2.71409173       0.00000000
Si       0.00050499       2.71433754      -2.71409173       0.00000000
Si       0.00052128      -2.71538010      -2.71354363       0.00000000
Si       2.71549480      -0.00071676      -2.71419450       0.00000000
