10
Lattice="16.28999089631971 0.0 0.0 0.0 16.28999089631971 0.0 0.0 0.0 34.25627252547053" Properties=species:S:1:pos:R:3:initial_magmoms:R:1 pbc="T T T"
Si       1.35396406       1.11068478       1.54906951       0.00000000
Si       0.37960587      -2.25898317      -0.65477476       0.00000000
Si      -2.21229603       0.17358624       0.97609877       0.00000000
Si      -1.04376546       2.08345095      -1.23994073       0.00000000
Si      -0.73060650       2.00283564       2.51749487       0.00000000
Si       0.21422979      -3.24254079       1.48363999       0.00000000
Si      -1.40198256      -2.85089661      -2.05760416       0.00000000
Si       2.97477296      -0.42507126       2.33555971       0.00000000
Si      -3.54506238       1.27257480      -0.64309336       0.00000000
Si      -1.34957763       3.52706912       0.69194284       0.00000000
