10
Lattice="16.28999089631971 0.0 0.0 0.0 16.28999089631971 0.0 0.0 0.0 34.25627252547053" Properties=species:S:1:pos:R:3:initial_magmoms:R:1 pbc="T T T"
Si       0.86143149      -2.01174984      -0.84016981       0.00000000
Si      -2.26118232      -0.47356659      -0.41426134       0.00000000
Si       0.38211453      -0.11430693       2.34069815       0.00000000
Si       0.95542479       1.92514961      -1.02193369       0.00000000
Si      -0.60533640       3.29404067       0.05600904       0.00000000
Si      -2.43426357       0.76484808      -2.50108611       0.00000000
Si      -0.10774206       1.69604607      -3.17480460       0.00000000
Si      -2.45335545      -2.80204290       0.17042505       0.00000000
Si       2.67271400       0.27324846       2.59703798       0.00000000
Si       0.77498046      -3.72900906       0.62034719       0.00000000
