10
Lattice="16.28999089631971 0.0 0.0 0.0 16.28999089631971 0.0 0.0 0.0 34.25627252547053" Properties=species:S:1:pos:R:3:initial_magmoms:R:1 pbc="T T T"
Si      -0.30129984       1.79405028       1.45174738       0.00000000
Si      -0.52294158       0.48246093      -2.24087532       0.00000000
Si      -0.82761345      -2.13558642       0.55618515       0.00000000
Si       2.34005850      -0.12598686       0.66148899       0.00000000
Si       1.50200316      -0.47829069      -2.88342058       0.00000000
Si       0.42901344       0.40324266       3.29572931       0.00000000
Si       0.00801468      -1.91558997       2.75310965       0.00000000
Si       2.91931461       1.97754084      -0.19769306       0.00000000
Si       1.32429555       3.43212381       0.72034130       0.00000000
Si       1.85719032      -2.59025661      -2.01450974       0.00000000
