10
Lattice="16.28999089631971 0.0 0.0 0.0 16.28999089631971 0.0 0.0 0.0 34.25627252547053" Properties=species:S:1:pos:R:3:initial_magmoms:R:1 pbc="T T T"
Si       1.34674643       1.32524037      -1.37773324       0.00000000
Si       1.35394661      -1.35834165       1.35579551       0.00000000
Si      -1.36124794       1.35557235       1.35524741       0.00000000
Si      -1.35717270      -1.36384767      -1.38348487       0.00000000
Si      -0.16679168       2.56446954      -2.69074950       0.00000000
Si       2.71181585      -0.00122175       2.71292702       0.00000000
Si      -0.00327755       2.71409319       2.71292702       0.00000000
Si      -0.00175606      -2.71647153       2.71265297       0.00000000
Si       2.71108280      -2.71818198      -0.00280902       0.00000000
Si       2.71440596       2.71503801      -0.00650870       0.00000000
