10
Lattice="16.28999089631971 0.0 0.0 0.0 16.28999089631971 0.0 0.0 0.0 34.25627252547053" Properties=species:S:1:pos:R:3:initial_magmoms:R:1 pbc="T T T"
Si       1.35475785      -1.35656604      -1.36367446       0.00000000
Si      -1.36105231       1.35940050      -1.36343466       0.00000000
Si      -1.37891755      -1.36041048       1.35425398       0.00000000
Si       1.35376416       1.38049605       1.37443093       0.00000000
Si       2.71202436      -2.71293660      -0.00082215       0.00000000
Si       2.70777267       2.71735119      -0.00435055       0.00000000
Si      -2.71724377      -2.70972747      -0.00411076       0.00000000
Si       2.71199178       0.00177561      -2.72066894       0.00000000
Si      -2.71725186       2.71591767      -0.00431629       0.00000000
Si      -0.00307881      -2.71298547      -2.72097725       0.00000000
