10
Lattice="16.28999089631971 0.0 0.0 0.0 16.28999089631971 0.0 0.0 0.0 34.25627252547053" Properties=species:S:1:pos:R:3:initial_magmoms:R:1 pbc="T T T"
Si      -1.81655721       1.38670254       0.44601692       0.00000000
Si       0.79923138      -0.31651470       2.16849178       0.00000000
Si      -1.16310015      -1.86961959      -0.78426354       0.00000000
Si       1.29037651       1.33219620      -1.48675731       0.00000000
Si      -1.10053026      -3.31420050       1.16831083       0.00000000
Si      -1.73010618       3.10396176      -1.01450008       0.00000000
Si       2.98031740      -1.05135660       2.03365901       0.00000000
Si       2.56342372      -0.26523378      -2.75129407       0.00000000
Si      -0.28494794       2.56872123      -2.78102853       0.00000000
Si      -3.44801700      -1.22759811      -1.05132559       0.00000000
