10
Lattice="16.28999089631971 0.0 0.0 0.0 16.28999089631971 0.0 0.0 0.0 34.25627252547053" Properties=species:S:1:pos:R:3:initial_magmoms:R:1 pbc="T T T"
Si       1.35698958       1.35773077      -1.35579551       0.00000000
Si      -1.35697847       1.35689999       1.35764535       0.00000000
Si      -1.35830628      -1.35857178      -1.35696023       0.00000000
Si       1.35840681      -1.35818710       1.35809068       0.00000000
Si       0.00287030       2.70937723      -2.71326958       0.00000000
Si       2.70865233       0.00484953      -2.71734608       0.00000000
Si      -2.71105415       0.00019711      -2.71587306       0.00000000
Si      -2.71429586       2.71384070       0.00000000       0.00000000
Si       0.00020688       2.71328683       2.71542773       0.00000000
Si      -0.00034535      -2.71464609       2.71443430       0.00000000
