10
Lattice="16.28999089631971 0.0 0.0 0.0 16.28999089631971 0.0 0.0 0.0 34.25627252547053" Properties=species:S:1:pos:R:3:initial_magmoms:R:1 pbc="T T T"
Si       2.18108602      -0.73484190      -0.13483276       0.00000000
Si      -0.79923138       0.31651470      -2.16849178       0.00000000
Si       0.19228879       2.09298807       1.05656680       0.00000000
Si      -1.09777821      -1.83599703       1.01542500       0.00000000
Si      -2.61578860       1.70321724      -1.72247486       0.00000000
Si       2.00326438       1.63514133       2.47947039       0.00000000
Si      -1.89976165      -2.99768580      -1.00018095       0.00000000
Si      -3.00792148      -0.96668118       2.06712741       0.00000000
Si      -1.96233154      -1.55310489      -2.95275532       0.00000000
Si       2.48238586      -2.52889218      -1.58658015       0.00000000
