10
Lattice="16.28999089631971 0.0 0.0 0.0 16.28999089631971 0.0 0.0 0.0 34.25627252547053" Properties=species:S:1:pos:R:3:initial_magmoms:R:1 pbc="T T T"
Si      -1.47378461       1.23887079      -1.28895806       0.00000000
Si       1.34868010       1.35317772       1.34249722       0.00000000
Si       1.18406476      -1.51192377      -1.34383321       0.00000000
Si      -1.36892588      -1.36202319       1.34770418       0.00000000
Si      -2.30087678      -0.57629133      -2.57918840       0.00000000
Si      -0.43713788      -2.58326820      -2.74419072       0.00000000
Si       2.70499853      -0.00519651       2.70250625       0.00000000
Si      -0.01057426       2.70970815       2.70236923       0.00000000
Si       2.69432858       2.71929653      -0.04297794       0.00000000
Si      -0.01039150      -2.72082096       2.70216369       0.00000000
