10
Lattice="16.28999089631971 0.0 0.0 0.0 16.28999089631971 0.0 0.0 0.0 34.25627252547053" Properties=species:S:1:pos:R:3:initial_magmoms:R:1 pbc="T T T"
Si       1.70566888       0.98866960      -1.18698051       0.00000000
Si      -1.11433211      -1.90781964      -0.94338402       0.00000000
Si      -1.78098474       1.63105321      -0.02120464       0.00000000
Si       1.78485457       0.66556053       1.87981401       0.00000000
Si       0.28321468       2.28995928      -2.53291021       0.00000000
Si      -2.43804189      -0.45457245      -2.50893080       0.00000000
Si      -1.72028820       2.48097419       2.18777807       0.00000000
Si       2.98179491      -0.44548263      -2.50413492       0.00000000
Si      -1.01243784       3.61125584      -1.14977817       0.00000000
Si       0.57123328       2.41232813       3.08553270       0.00000000
