10
Lattice="10.86 0.0 0.0 0.0 10.86 0.0 0.0 0.0 10.86" Properties=species:S:1:pos:R:3:initial_magmoms:R:1 pbc="T T T"
Si      -1.39936530       1.42410438      -1.23737754       0.00000000
Si       0.63476700      -1.21098774      -1.95310584       0.00000000
Si      -1.39936530      -1.29089562       1.47762246       0.00000000
Si       1.31563470       1.42410438       1.47762246       0.00000000
Si       2.62161486      -2.54245632       0.09451458       0.00000000
Si      -2.71025418      -2.55115518       0.19875972       0.00000000
Si      -2.72529528       0.09942330      -2.60323974       0.00000000
Si      -0.04186530       2.78160438      -2.59487754       0.00000000
Si       2.67313470       2.78160438       0.12012246       0.00000000
Si      -0.04186530      -2.64839562       2.83512246       0.00000000
