10
Lattice="16.290000149 0.0 0.0 0.0 16.290000149 0.0 0.0 0.0 29.1751946751" Properties=species:S:1:pos:R:3:initial_magmoms:R:1 pbc="T T T"
Si       1.32934546      -1.36049194       1.37353899       0.00000000
Si      -1.37101528      -1.36881613      -1.32437879       0.00000000
Si      -1.36537894       1.35226549       1.34838997       0.00000000
Si       1.36689391       1.36546039      -1.34407204       0.00000000
Si      -2.69664662       0.01417230      -2.68432214       0.00000000
Si       0.00819387      -2.71757927      -2.66474558       0.00000000
Si       2.68845275       0.00702099       2.70807074       0.00000000
Si      -0.02170968       2.71329500       2.70086447       0.00000000
Si       2.72427446       0.00982287      -2.69879303       0.00000000
Si       2.71248050      -2.71607734       0.03964909       0.00000000
