10
Lattice="16.290000149 0.0 0.0 0.0 16.290000149 0.0 0.0 0.0 29.1751946751" Properties=species:S:1:pos:R:3:initial_magmoms:R:1 pbc="T T T"
Si       1.32766759       1.38111508      -1.37496274       0.00000000
Si       1.34967538      -1.36226755       1.37458930       0.00000000
Si      -1.36278883       1.34785090       1.38986835       0.00000000
Si      -1.39061215      -1.37740096      -1.34015673       0.00000000
Si       2.52519437      -0.09166383      -2.80507243       0.00000000
Si      -2.64782549      -2.74719450       0.08442718       0.00000000
Si      -0.07490142       2.80282485      -2.59509856       0.00000000
Si       2.72196128       0.04424364       2.68561168       0.00000000
Si      -2.84429919       0.03608235      -2.55711245       0.00000000
Si       2.63544509       2.82954045      -0.00772851       0.00000000
