10
Lattice="16.290000149 0.0 0.0 0.0 16.290000149 0.0 0.0 0.0 29.1751946751" Properties=species:S:1:pos:R:3:initial_magmoms:R:1 pbc="T T T"
Si       1.07981524      -1.42081381      -1.49928408       0.00000000
Si      -1.54640971       1.32089095      -1.18798475       0.00000000
Si      -1.05883372      -1.76314817       1.17923219       0.00000000
Si       2.12835368       0.97241527       0.68112409       0.00000000
Si       0.21724344       0.80383006       3.38128836       0.00000000
Si       2.37351818      -2.71577108      -0.07299634       0.00000000
Si      -0.20411370       2.70070283      -2.50078099       0.00000000
Si       2.49372209      -0.09443313      -2.73876305       0.00000000
Si      -1.40196628      -0.88537780       3.31675283       0.00000000
Si       0.54172396      -3.54027315       1.09024785       0.00000000
