10
Lattice="16.290000149 0.0 0.0 0.0 16.290000149 0.0 0.0 0.0 29.1751946751" Properties=species:S:1:pos:R:3:initial_magmoms:R:1 pbc="T T T"
Si       1.12458016      -0.05336604      -1.01179575       0.00000000
H        0.65026423       0.92976805       1.62193660       0.00000000
H       -0.89342506       1.78742027       0.44320038       0.00000000
Si      -2.25424280       1.20277216       0.16837005       0.00000000
Si      -2.73540054      -1.00339885       0.77731471       0.00000000
Si       0.12191436       0.67608388       3.00959638       0.00000000
Si       1.34713414      -2.18611802      -1.92632140       0.00000000
Si       3.18300087       0.64446499      -0.11004883       0.00000000
Si       0.90145603       1.46189719      -2.84875353       0.00000000
Si      -1.67620844      -0.91618219       2.88539758       0.00000000
