10
Lattice="16.290000149 0.0 0.0 0.0 16.290000149 0.0 0.0 0.0 29.1751946751" Properties=species:S:1:pos:R:3:initial_magmoms:R:1 pbc="T T T"
Si      -0.91303822      -1.82762399       1.17205510       0.00000000
Si       1.14564313       0.10933848      -2.05798906       0.00000000
Si       1.55903446       0.77962312       1.59906324       0.00000000
Si      -1.93666925       1.49016034      -0.29962925       0.00000000
Si      -1.95100445      -0.33368436       2.63265287       0.00000000
H       -2.85905793       0.48759228       1.73580738       0.00000000
H        1.86132800      -2.82761823      -0.14993133       0.00000000
Si      -0.05628195       0.96821245       3.26817613       0.00000000
Si       2.69654888       1.89078032      -1.55996848       0.00000000
Si       2.39300102       2.71380325       0.60567704       0.00000000
