10
Lattice="16.290000149 0.0 0.0 0.0 16.290000149 0.0 0.0 0.0 29.1751946751" Properties=species:S:1:pos:R:3:initial_magmoms:R:1 pbc="T T T"
Si      -1.36506129       1.42807264      -1.19793349       0.00000000
Si       1.53166726      -1.26149761      -1.21593459       0.00000000
Si       0.83179999       1.67543140       1.38897267       0.00000000
Si      -0.91702927      -1.73273474       1.28222063       0.00000000
H        0.21168855       2.97540111       0.93389798       0.00000000
Si       2.56191203      -2.08557614       0.73909521       0.00000000
Si       0.11220552      -2.65008980      -2.51487261       0.00000000
Si      -2.62452643       0.08691220      -2.61920310       0.00000000
Si       0.07573221       1.08745199       3.54563223       0.00000000
Si       0.73852345      -3.38374254       1.38141629       0.00000000
