10
Lattice="16.290000149 0.0 0.0 0.0 16.290000149 0.0 0.0 0.0 29.1751946751" Properties=species:S:1:pos:R:3:initial_magmoms:R:1 pbc="T T T"
Si       1.31299030       1.35956341       1.34441631       0.00000000
Si      -1.37622808       1.26416917      -1.41571465       0.00000000
Si       1.28599777      -1.44878374      -1.32872006       0.00000000
Si      -1.42724836      -1.39128004       1.28002666       0.00000000
Si      -2.18857781      -0.59432437      -2.59534946       0.00000000
Si      -0.55697140      -2.33005646      -2.50902881       0.00000000
Si       2.62127279       2.64909611      -0.12555253       0.00000000
Si       2.63078615      -0.03173292       2.68484145       0.00000000
Si      -0.10586871       2.69060303       2.64539659       0.00000000
Si       2.53641818      -2.81942436       0.08332144       0.00000000
