10
Lattice="16.290000149 0.0 0.0 0.0 16.290000149 0.0 0.0 0.0 29.1751946751" Properties=species:S:1:pos:R:3:initial_magmoms:R:1 pbc="T T T"
Si       1.37088496      -1.34651512      -1.33701165       0.00000000
Si       1.37780821       1.33602436       1.34404287       0.00000000
Si      -1.35148357      -1.36510201       1.35337893       0.00000000
Si      -1.34654770       1.35874891      -1.36761643       0.00000000
Si      -0.01570356      -2.69640227      -2.66080693       0.00000000
Si       0.00105885       2.70137072       2.65821034       0.00000000
Si      -2.71894763      -0.00742824       2.68761893       0.00000000
Si       2.74124865       0.01208718      -2.67393577       0.00000000
Si      -2.69407280       0.00184077      -2.72896018       0.00000000
Si       0.01780497      -2.71031393       2.71492692       0.00000000
