10
Lattice="16.290000149 0.0 0.0 0.0 16.290000149 0.0 0.0 0.0 29.1751946751" Properties=species:S:1:pos:R:3:initial_magmoms:R:1 pbc="T T T"
Si       1.42592399      -1.21384936       1.38873927       0.00000000
Si      -1.43780917       1.23831694       1.37342229       0.00000000
Si      -1.34481200      -1.38914605      -1.34579338       0.00000000
Si       1.36771982       1.42729723      -1.29759596       0.00000000
H       -1.20462433      -1.44897922       3.06616708       0.00000000
Si      -0.05624937      -2.39937041       2.79314561       0.00000000
Si      -0.01252538       2.67442706       2.54019667       0.00000000
Si       2.57594913      -2.64064160      -0.07130418       0.00000000
Si       2.56524660       0.02391372      -2.77275215       0.00000000
Si      -2.72721155       2.65419488       0.01344976       0.00000000
