10
Lattice="16.290000149 0.0 0.0 0.0 16.290000149 0.0 0.0 0.0 29.1751946751" Properties=species:S:1:pos:R:3:initial_magmoms:R:1 pbc="T T T"
Si       1.44521623      -1.19428507      -1.35590463       0.00000000
Si      -1.34410583      -1.46276056       1.23317217       0.00000000
Si      -1.35727141       1.24010884      -1.45915564       0.00000000
Si       1.42677595       1.35858601       1.27965117       0.00000000
Si      -2.70464501      -0.00327429       2.51802440       0.00000000
Si       0.08513154      -2.54184275      -2.69501689       0.00000000
Si       0.09801693       2.67366143       2.69832419       0.00000000
Si      -2.52730686       2.83248845      -0.17206275       0.00000000
Si       2.75696850      -0.03635928       2.64831790       0.00000000
Si       0.04212594      -2.80188003       2.60488479       0.00000000
