10
Lattice="16.290000149 0.0 0.0 0.0 16.290000149 0.0 0.0 0.0 29.1751946751" Properties=species:S:1:pos:R:3:initial_magmoms:R:1 pbc="T T T"
Si      -0.22255398       2.13275198       0.91452565       0.00000000
Si      -1.81579745      -0.75331477      -1.38194145       0.00000000
Si       0.33914151      -1.95048317       1.37146755       0.00000000
Si       2.12416715       0.58886722      -1.00030072       0.00000000
H        2.20718099      -0.23206734       1.57566474       0.00000000
H       -1.34713414       2.18611802       1.92632140       0.00000000
H        2.85651669      -0.65769247       1.61554723       0.00000000
Si       1.95416471      -2.74043415      -0.14666370       0.00000000
H       -1.05968080      -1.11180880       3.00676639       0.00000000
H        1.05205708      -1.86352715       2.69890973       0.00000000
