10
Lattice="16.290000149 0.0 0.0 0.0 16.290000149 0.0 0.0 0.0 29.1751946751" Properties=species:S:1:pos:R:3:initial_magmoms:R:1 pbc="T T T"
Si       1.71756875      -1.63000999      -0.10106287       0.00000000
Si      -2.05568399      -1.00926325      -0.72532451       0.00000000
Si       1.39453804       1.73912042      -0.91198741       0.00000000
Si      -1.00395271       1.24014142       1.84323045       0.00000000
H        0.80589889      -1.46937430      -2.64750304       0.00000000
H       -0.60186664       0.56151631      -3.09700527       0.00000000
Si      -2.36082013       2.64655487       0.52938391       0.00000000
Si       2.15878340      -1.87704785       2.18183192       0.00000000
Si      -3.46823063       0.94069864      -0.72319473       0.00000000
Si       3.58502178      -0.72822817      -1.37633981       0.00000000
