10
Lattice="16.290000149 0.0 0.0 0.0 16.290000149 0.0 0.0 0.0 29.1751946751" Properties=species:S:1:pos:R:3:initial_magmoms:R:1 pbc="T T T"
Si       1.41133303       1.39128004      -1.25513146       0.00000000
Si       1.36679617      -1.34713414       1.37190518       0.00000000
Si      -1.27982109       1.34622190       1.45592974       0.00000000
Si      -1.39132891      -1.28565568      -1.43543125       0.00000000
Si      -2.69211800      -2.63969678      -0.00017505       0.00000000
Si      -2.59708214       2.78057759       0.17995260       0.00000000
Si       0.13232041       2.76360015      -2.64306841       0.00000000
Si       2.74009206       0.07620462      -2.67380448       0.00000000
Si       2.71819829      -2.71704170       0.01452925       0.00000000
Si       2.71300178       2.71703193       0.17102499       0.00000000
