10
Lattice="16.290000149 0.0 0.0 0.0 16.290000149 0.0 0.0 0.0 29.1751946751" Properties=species:S:1:pos:R:3:initial_magmoms:R:1 pbc="T T T"
Si      -1.14564313      -0.10933848       2.05798906       0.00000000
Si      -1.51272199       1.02684016      -1.50304768       0.00000000
Si       1.01647972      -1.73890865      -1.27968239       0.00000000
Si       1.55090575       1.78144184       0.49802057       0.00000000
H       -2.03962205      -2.76934890      -0.92068162       0.00000000
H        0.71568487      -2.93695671       1.90805773       0.00000000
Si       2.32003811      -0.43741908      -2.77205195       0.00000000
Si      -2.56337813       2.62910991      -0.17589725       0.00000000
Si      -0.21822084       2.45692608      -2.79028644       0.00000000
Si       0.41339133       0.67028464       3.65705230       0.00000000
