10
Lattice="16.290000149 0.0 0.0 0.0 16.290000149 0.0 0.0 0.0 29.1751946751" Properties=species:S:1:pos:R:3:initial_magmoms:R:1 pbc="T T T"
Si      -0.51982042      -0.91150696      -2.09089868       0.00000000
Si       2.05568399       1.00926325       0.72532451       0.00000000
Si      -1.41254664       1.94996189       0.00212979       0.00000000
Si      -0.67887435      -1.76160062       1.50844509       0.00000000
H        1.45381735       1.57077955      -2.37168075       0.00000000
Si      -1.94100239      -0.33365178       2.83503361       0.00000000
H        2.86158288      -0.46011105      -1.92217853       0.00000000
Si       0.26078661       1.20575323      -3.26557954       0.00000000
Si       1.05173128       2.24940467       2.56855496       0.00000000
Si      -3.08081370       1.16716222       1.45120336       0.00000000
