10
Lattice="16.290000149 0.0 0.0 0.0 16.290000149 0.0 0.0 0.0 29.1751946751" Properties=species:S:1:pos:R:3:initial_magmoms:R:1 pbc="T T T"
Si      -1.35956341      -1.36526491      -1.32989290       0.00000000
Si      -1.34757397       1.34944732       1.36373612       0.00000000
Si       1.33649677      -1.37499004       1.35329140       0.00000000
Si       1.33770223       1.35759232      -1.38013258       0.00000000
Si      -2.70430292       2.67921632      -0.02211480       0.00000000
Si       2.68016603      -0.01396053       2.70576590       0.00000000
Si       0.00522909      -2.71308323      -2.67942070       0.00000000
Si      -2.68912064       0.00159642      -2.70503652       0.00000000
Si       2.69025443       2.70998813      -0.01972243       0.00000000
Si      -2.70282053      -0.02443500       2.70559085       0.00000000
