10
Lattice="16.290000149 0.0 0.0 0.0 16.290000149 0.0 0.0 0.0 29.1751946751" Properties=species:S:1:pos:R:3:initial_magmoms:R:1 pbc="T T T"
Si       1.35208630       1.39830103      -1.31966699       0.00000000
Si      -1.35140212       1.36990756       1.35737593       0.00000000
Si       1.37744983      -1.34638480       1.35889304       0.00000000
Si      -1.36275625      -1.36721971      -1.36310011       0.00000000
Si       2.73378783       0.04035033      -2.64154838       0.00000000
Si      -2.70769124      -2.69650001       0.01797192       0.00000000
Si       2.69030981       2.72196128       0.08466641       0.00000000
Si      -2.69679812       0.02181231       2.72572174       0.00000000
Si       0.02298519      -2.69083109       2.73386162       0.00000000
Si      -2.71819829       2.71704170      -0.01452925       0.00000000
