10
Lattice="16.290000149 0.0 0.0 0.0 16.290000149 0.0 0.0 0.0 29.1751946751" Properties=species:S:1:pos:R:3:initial_magmoms:R:1 pbc="T T T"
Si       1.43228197      -1.22078890      -1.29009793       0.00000000
Si      -1.22223871       1.53451801      -1.24283412       0.00000000
Si       1.48673944       1.01118547       1.47080909       0.00000000
Si      -1.11808045      -1.44247951       1.55410427       0.00000000
H        2.08757981      -2.05364774      -0.21058656       0.00000000
Si      -2.00202473       0.33808266       2.83200697       0.00000000
Si      -0.12828375       1.80113645       2.98894034       0.00000000
Si       2.47542842      -0.84688453       2.36847148       0.00000000
Si      -0.00718389      -2.55539603      -2.49596708       0.00000000
Si       0.70200127      -2.32903019       2.70462807       0.00000000
