10
Lattice="16.290000149 0.0 0.0 0.0 16.290000149 0.0 0.0 0.0 29.1751946751" Properties=species:S:1:pos:R:3:initial_magmoms:R:1 pbc="T T T"
Si      -0.52834986      -0.25368417       1.38765978       0.00000000
H       -0.65026423      -0.92976805      -1.62193660       0.00000000
H       -1.54368928       0.85765222      -1.17873622       0.00000000
H        1.20534598       1.77044609       0.36909539       0.00000000
Si       0.47431593      -0.98313409      -2.63373235       0.00000000
Si       2.17388423       1.83168020      -0.80147177       0.00000000
Si       2.53273664      -0.28530306      -1.73198543       0.00000000
Si       1.16331778      -1.18183951       2.69572964       0.00000000
Si      -2.32647266      -1.84595024       1.26346098       0.00000000
Si      -2.90450703       0.27300411      -1.45356655       0.00000000
