10
Lattice="16.290000149 0.0 0.0 0.0 16.290000149 0.0 0.0 0.0 29.1751946751" Properties=species:S:1:pos:R:3:initial_magmoms:R:1 pbc="T T T"
Si      -1.32177061      -1.32682051       1.36377289       0.00000000
Si       1.26212803      -1.42794883      -1.32658852       0.00000000
Si      -1.13981131       1.50081400      -1.38383025       0.00000000
Si       1.50612943       1.38368890       1.16842453       0.00000000
Si       1.94100239       0.33365178      -2.83503361       0.00000000
H       -2.31920732       0.96138694      -2.43810508       0.00000000
Si       0.52845575       2.28361367      -2.83290382       0.00000000
Si       0.10648773       2.73378782       2.53642607       0.00000000
Si       0.12877167      -2.71155197       2.58964455       0.00000000
Si      -2.57825090       0.07374483       2.72962129       0.00000000
