10
Lattice="16.290000149 0.0 0.0 0.0 16.290000149 0.0 0.0 0.0 29.1751946751" Properties=species:S:1:pos:R:3:initial_magmoms:R:1 pbc="T T T"
Si       1.42755787       1.38873880       1.17946560       0.00000000
Si      -1.32043483       1.43886313      -1.27734837       0.00000000
Si       1.43288470      -1.32173803      -1.28376692       0.00000000
Si      -1.38536677      -1.33560082       1.33931649       0.00000000
Si       0.05582583      -2.66287745      -2.61538115       0.00000000
Si      -2.66952377       0.07732863      -2.62518402       0.00000000
Si       0.00897579      -2.61851978       2.69966829       0.00000000
Si      -2.56723886       0.11616399       2.75154179       0.00000000
Si       2.72126081       0.09378153       2.60575334       0.00000000
Si       0.06775011       2.79894783      -2.59046554       0.00000000
