10
Lattice="16.290000149 0.0 0.0 0.0 16.290000149 0.0 0.0 0.0 29.1751946751" Properties=species:S:1:pos:R:3:initial_magmoms:R:1 pbc="T T T"
Si      -0.57052468       1.03123846       2.00655319       0.00000000
Si      -1.61920972      -1.68920786      -0.06453553       0.00000000
Si       2.19471914      -0.72347149      -0.45948014       0.00000000
Si       0.04360833       2.14951113      -0.97404305       0.00000000
Si       0.67289104       2.81907575       1.17683983       0.00000000
Si       1.91111024       0.16858521      -2.70016427       0.00000000
Si       1.92303452      -2.75317293       0.73670284       0.00000000
Si      -3.44197929      -0.23278410       0.09957494       0.00000000
Si      -0.21724344      -0.80383006      -3.38128836       0.00000000
Si      -1.27607716      -2.56697822      -2.20205617       0.00000000
