10
Lattice="16.290000149 0.0 0.0 0.0 16.290000149 0.0 0.0 0.0 29.1751946751" Properties=species:S:1:pos:R:3:initial_magmoms:R:1 pbc="T T T"
Si       1.33791563       1.35601219      -1.36388200       0.00000000
Si      -1.38962876       1.38905336       1.28796814       0.00000000
Si       1.34710319      -1.34794864       1.39229864       0.00000000
Si      -1.37893441      -1.35757603      -1.35536284       0.00000000
Si      -0.11318455      -2.73272897       2.61097570       0.00000000
Si      -2.68488362       0.05631453       2.67157258       0.00000000
Si       2.68605975      -2.67757103      -0.01630893       0.00000000
Si       2.69001822       2.70153525       0.01794274       0.00000000
Si      -0.06806939       2.69352383      -2.69783025       0.00000000
Si       2.68923630      -0.00557118      -2.72397123       0.00000000
