10
Lattice="16.290000149 0.0 0.0 0.0 16.290000149 0.0 0.0 0.0 29.1751946751" Properties=species:S:1:pos:R:3:initial_magmoms:R:1 pbc="T T T"
Si      -1.32144481      -1.34073217      -1.39319432       0.00000000
Si       1.35492076       1.31546638      -1.39826205       0.00000000
Si      -1.37790595       1.35969373       1.33540701       0.00000000
Si       1.35314515      -1.36695907       1.35539202       0.00000000
Si       2.69938334       2.68407074      -0.03550621       0.00000000
Si      -2.69540533      -2.70234812      -0.03325972       0.00000000
Si       0.09609471      -2.72383463      -2.67610057       0.00000000
Si      -0.01707192       2.71388144       2.68814409       0.00000000
Si       2.70067025      -0.01005093       2.71673578       0.00000000
Si      -2.70850900       0.00153126       2.71772773       0.00000000
