10
Lattice="16.290000149 0.0 0.0 0.0 16.290000149 0.0 0.0 0.0 29.1751946751" Properties=species:S:1:pos:R:3:initial_magmoms:R:1 pbc="T T T"
Si      -1.35555607      -1.34053669       1.31459926       0.00000000
Si      -1.40711392       1.36435267      -1.25192511       0.00000000
Si       1.33724611      -1.15414651      -1.55685549       0.00000000
Si       1.42268716       1.45997497       1.22301833       0.00000000
Si       0.42409386       2.38676195      -2.19535463       0.00000000
Si       2.16657002       0.84219301      -2.64930286       0.00000000
Si       0.07801281      -2.66001041       2.59641144       0.00000000
Si      -2.69151527       0.10041156       2.60300503       0.00000000
Si       2.76457593      -2.52055172      -0.22268843       0.00000000
Si      -2.66098781      -2.63583605      -0.15925864       0.00000000
