10
Lattice="16.290000149 0.0 0.0 0.0 16.290000149 0.0 0.0 0.0 29.1751946751" Properties=species:S:1:pos:R:3:initial_magmoms:R:1 pbc="T T T"
Si       0.17816373      -1.38998499      -0.60620219       0.00000000
Si      -0.69256936       1.82395874       1.92262782       0.00000000
Si      -0.52732359       1.28549278      -2.38346753       0.00000000
Si      -2.53553852       0.94268602       0.74231907       0.00000000
Si      -2.45949680       0.24687495      -1.48525081       0.00000000
Si       1.21430548       2.61550613       0.80005678       0.00000000
Si       2.05635188      -0.78132868       2.05477687       0.00000000
Si       1.01532313      -2.63544509       1.10497841       0.00000000
Si       2.91981963       0.94700287       0.67094341       0.00000000
Si       2.07262559      -1.37722340      -1.94674404       0.00000000
