10
Lattice="16.290000149 0.0 0.0 0.0 16.290000149 0.0 0.0 0.0 29.1751946751" Properties=species:S:1:pos:R:3:initial_magmoms:R:1 pbc="T T T"
Si      -1.36083403      -1.35418771      -1.35273708       0.00000000
Si      -1.36798534       1.35404110       1.35098656       0.00000000
Si       1.34908894      -1.36001953       1.36481561       0.00000000
Si       1.35446464       1.34444629      -1.37496857       0.00000000
Si       2.69001659       2.69490359       0.01884718       0.00000000
Si       0.01707192      -2.71388144      -2.68814409       0.00000000
Si      -2.69143708      -2.71235018       0.02958365       0.00000000
Si      -0.02298519       2.69083109      -2.73386162       0.00000000
Si       2.71427240      -0.00548973       2.71235950       0.00000000
Si      -0.02692737       2.71570592       2.71618145       0.00000000
