10
Lattice="16.290000149 0.0 0.0 0.0 16.290000149 0.0 0.0 0.0 29.1751946751" Properties=species:S:1:pos:R:3:initial_magmoms:R:1 pbc="T T T"
Si      -0.47618928       2.02802357      -1.06264812       0.00000000
Si       1.59860287       0.81256150       1.55748859       0.00000000
Si       1.29103138      -1.50571729      -1.32259910       0.00000000
Si      -1.86745304      -0.90178183       1.27527693       0.00000000
H       -2.77912290      -0.74114614      -1.27116323       0.00000000
H        1.04062150       1.17856522      -2.77246040       0.00000000
H       -1.07111638       1.93028357      -2.46460375       0.00000000
Si      -2.19048374       2.46734858       0.46435240       0.00000000
Si       2.21358296      -2.54174501       0.51870579       0.00000000
Si       3.30009339      -0.78459157       1.57190114       0.00000000
