10
Lattice="16.290000149 0.0 0.0 0.0 16.290000149 0.0 0.0 0.0 29.1751946751" Properties=species:S:1:pos:R:3:initial_magmoms:R:1 pbc="T T T"
Si      -2.28297836       0.40821111      -0.04670949       0.00000000
Si       0.25938567      -0.80756047      -2.16240708       0.00000000
Si       1.03527838      -1.53839503       1.47929907       0.00000000
Si       1.25214715       2.01262626       0.10100452       0.00000000
Si      -2.58652622       1.23123405       2.11893604       0.00000000
Si       3.32558724       1.29059970       0.95172403       0.00000000
Si       2.55498878      -0.20805588       2.66865506       0.00000000
Si       1.91493839      -2.45856827      -2.06321142       0.00000000
Si       2.40539771      -2.87595066       0.14748061       0.00000000
Si       1.17641494       0.92517427      -3.44462771       0.00000000
