10
Lattice="16.290000149 0.0 0.0 0.0 16.290000149 0.0 0.0 0.0 29.1751946751" Properties=species:S:1:pos:R:3:initial_magmoms:R:1 pbc="T T T"
Si       0.90805348      -0.82127665       0.89684548       0.00000000
H       -1.93616426      -0.38353176      -1.27892383       0.00000000
Si       0.92238868       1.00256806      -2.03543663       0.00000000
Si      -0.96762601      -0.32229765      -2.44949099       0.00000000
Si      -0.68497822       2.54857052      -0.96946254       0.00000000
Si      -1.41718114       2.20877578       1.29044804       0.00000000
Si       1.94601971      -2.31521627      -0.56375229       0.00000000
Si      -0.47416932      -2.05226309       2.33337372       0.00000000
Si       2.80277598       0.48062016       1.53236875       0.00000000
Si       2.85905793      -0.48759228      -1.73580738       0.00000000
