10
Lattice="16.290000149 0.0 0.0 0.0 16.290000149 0.0 0.0 0.0 29.1751946751" Properties=species:S:1:pos:R:3:initial_magmoms:R:1 pbc="T T T"
Si      -1.37160661       1.23756760      -1.44504739       0.00000000
Si       1.19752678      -1.40338351      -1.47515619       0.00000000
Si      -1.36771982      -1.42729723       1.29759596       0.00000000
Si       1.43584948       1.40748859       1.31711416       0.00000000
Si      -0.06696819       2.73870741       2.56969280       0.00000000
Si       2.55205658      -2.76066633      -0.17012056       0.00000000
Si       0.05820417      -2.64114659       2.68633522       0.00000000
Si      -2.77464315       2.55472814      -0.12904189       0.00000000
Si       2.73603585       2.64709244      -0.18211157       0.00000000
Si      -0.04062726       2.63544509      -2.78696047       0.00000000
