10
Lattice="16.290000149 0.0 0.0 0.0 16.290000149 0.0 0.0 0.0 29.1751946751" Properties=species:S:1:pos:R:3:initial_magmoms:R:1 pbc="T T T"
Si      -1.16588020       0.15698673      -2.01848584       0.00000000
Si       0.22369591       1.85132594       1.43871638       0.00000000
Si       2.31385931      -0.17585055      -0.59482387       0.00000000
Si      -1.16524489      -2.05833926       0.59298583       0.00000000
H       -2.72857991       0.59608369       0.01207853       0.00000000
H       -2.19917120      -0.94941379      -1.80308538       0.00000000
Si      -3.17544720      -0.68865976       0.67636854       0.00000000
Si       1.65268079       0.66735244       2.89213705       0.00000000
Si       1.88437346      -1.99244621      -2.07616520       0.00000000
Si       0.32141962      -0.91852795      -3.44494864       0.00000000
