10
Lattice="16.290000149 0.0 0.0 0.0 16.290000149 0.0 0.0 0.0 29.1751946751" Properties=species:S:1:pos:R:3:initial_magmoms:R:1 pbc="T T T"
Si       1.42050430      -1.37029852       1.25450420       0.00000000
Si       1.37731951       1.32041854      -1.36218984       0.00000000
Si      -1.33895656       1.32962239       1.40860757       0.00000000
Si      -1.35615880      -1.38194587      -1.35034471       0.00000000
Si      -2.68605975       2.67757103       0.01630893       0.00000000
Si       0.12031794      -2.60990237       2.75372992       0.00000000
Si       0.00317655       2.67199985      -2.70766229       0.00000000
Si       0.08050518       2.71821458       2.70754559       0.00000000
Si      -2.79924430      -0.05515794       2.62728463       0.00000000
Si       2.60237639      -2.82206334      -0.15772110       0.00000000
