10
Lattice="16.290000149 0.0 0.0 0.0 16.290000149 0.0 0.0 0.0 29.1751946751" Properties=species:S:1:pos:R:3:initial_magmoms:R:1 pbc="T T T"
Si      -0.11401371       2.30756486       0.23920742       0.00000000
Si       1.59726709       0.06963975      -1.79450787       0.00000000
Si       0.28360890      -0.89205670       2.24068413       0.00000000
Si      -2.12835368      -0.97241527      -0.68112409       0.00000000
H        1.08763444      -2.75511144       0.05864214       0.00000000
H        2.53531046      -1.85490974       0.59616593       0.00000000
Si      -1.86750191       1.98092592       1.72612122       0.00000000
Si      -1.91111024      -0.16858521       2.70016427       0.00000000
Si       3.17801613      -1.02110608      -0.47739371       0.00000000
Si      -1.04853844      -2.39322908      -2.18040817       0.00000000
