10
Lattice="16.290000149 0.0 0.0 0.0 16.290000149 0.0 0.0 0.0 29.1751946751" Properties=species:S:1:pos:R:3:initial_magmoms:R:1 pbc="T T T"
Si      -1.34757397      -1.33253830      -1.38770646       0.00000000
Si      -1.34322454       1.30347694       1.42319517       0.00000000
Si       1.30078909       1.35404110      -1.43525620       0.00000000
Si       1.34863282      -1.38466630       1.36160634       0.00000000
Si       2.69211800       2.63969678       0.00017505       0.00000000
Si      -2.68946273       2.64798839       0.05800029       0.00000000
Si       2.66132828      -0.10544517      -2.72010843       0.00000000
Si      -2.68838759      -2.75142990      -0.02853334       0.00000000
Si       0.01461213       2.65114865       2.79019892       0.00000000
Si       2.71351818      -0.05553261       2.74042604       0.00000000
