10
Lattice="16.290000149 0.0 0.0 0.0 16.290000149 0.0 0.0 0.0 29.1751946751" Properties=species:S:1:pos:R:3:initial_magmoms:R:1 pbc="T T T"
Si      -0.25938567       0.80756047       2.16240708       0.00000000
Si       1.65555272      -1.65100781       0.09919566       0.00000000
Si      -1.77323168      -1.00308934      -1.15437493       0.00000000
Si       0.91702927       1.73273474      -1.28222063       0.00000000
Si      -0.43105295      -2.30213540      -2.57841618       0.00000000
Si      -2.54236403       1.21577158       2.11569759       0.00000000
Si       2.44869653       0.47123712      -2.49815522       0.00000000
Si       3.47894130      -0.35284140      -0.54312542       0.00000000
Si       0.99276148       2.82018673       2.26341160       0.00000000
Si       2.14601204      -2.06839019       2.30988769       0.00000000
