10
Lattice="16.290000149 0.0 0.0 0.0 16.290000149 0.0 0.0 0.0 29.1751946751" Properties=species:S:1:pos:R:3:initial_magmoms:R:1 pbc="T T T"
H        0.52834986       0.25368417      -1.38765978       0.00000000
Si       1.69166765      -0.92815534       1.30806985       0.00000000
Si      -0.84349621       1.87750397       1.11195419       0.00000000
Si      -1.79812280      -1.59226606      -0.12419880       0.00000000
H        1.73369585       2.02413026      -1.01856440       0.00000000
H       -1.01533942       1.11133639      -2.56639600       0.00000000
H       -0.12191436      -0.67608388      -3.00959638       0.00000000
Si      -2.15840873       0.51127794       2.59379151       0.00000000
Si       2.65896785      -2.37812825      -0.21044068       0.00000000
Si       0.42629301      -2.41134356       2.63171926       0.00000000
