10
Lattice="16.290000149 0.0 0.0 0.0 16.290000149 0.0 0.0 0.0 29.1751946751" Properties=species:S:1:pos:R:3:initial_magmoms:R:1 pbc="T T T"
Si      -1.30828249      -1.28953270       1.46996884       0.00000000
Si      -1.34967538       1.36226755      -1.37458930       0.00000000
Si       1.43109280      -1.37192752      -1.28390112       0.00000000
Si       1.37228590       1.40651119       1.31102238       0.00000000
Si      -2.62127279      -2.64909611       0.12555253       0.00000000
Si       2.64759743       0.06217893      -2.72609518       0.00000000
Si       2.74642887      -2.63554283       0.18770153       0.00000000
Si      -2.71246421       2.71011845       0.01527905       0.00000000
Si       2.71208954       0.07025877       2.73226282       0.00000000
Si      -2.74028754      -0.01513341      -2.71474603       0.00000000
