10
Lattice="16.290000149 0.0 0.0 0.0 16.290000149 0.0 0.0 0.0 29.1751946751" Properties=species:S:1:pos:R:3:initial_magmoms:R:1 pbc="T T T"
Si       1.30108231      -1.34894233       1.41794364       0.00000000
Si      -1.37728693       1.34930071       1.34979038       0.00000000
Si      -1.43065297      -1.40367673      -1.24020543       0.00000000
Si       1.42724836       1.39128004      -1.28002666       0.00000000
Si      -2.63433737      -0.00757485      -2.68170220       0.00000000
Si       2.71324613      -0.05750370      -2.60874671       0.00000000
Si       0.05102028       2.65544921      -2.69574131       0.00000000
Si      -0.11645721      -2.72792342      -2.63965491       0.00000000
Si       2.63099792      -2.76857186       0.13230951       0.00000000
Si      -0.02976183       2.70620885       2.71113414       0.00000000
