10
Lattice="16.290000149 0.0 0.0 0.0 16.290000149 0.0 0.0 0.0 29.1751946751" Properties=species:S:1:pos:R:3:initial_magmoms:R:1 pbc="T T T"
Si       1.82008172      -0.88655068       1.15052380       0.00000000
Si      -0.88394428       1.78056218       1.27790270       0.00000000
Si       1.11808045       1.44247951      -1.55410427       0.00000000
Si      -1.03387744      -2.14742927      -0.39433193       0.00000000
H       -1.92099827      -0.56904229      -1.88419242       0.00000000
Si       2.60481989       2.45366498      -0.08329518       0.00000000
Si      -0.05359410      -2.55208102      -2.54626512       0.00000000
Si      -1.96436225       0.61599007       2.98646045       0.00000000
Si       0.98979670       3.24361596       1.43483607       0.00000000
H        3.20566026      -0.61116823      -1.76469083       0.00000000
