10
Lattice="16.290000149 0.0 0.0 0.0 16.290000149 0.0 0.0 0.0 29.1751946751" Properties=species:S:1:pos:R:3:initial_magmoms:R:1 pbc="T T T"
Si       0.67699612      -2.05305152      -0.76821205       0.00000000
Si      -0.62595955      -0.51842925       2.18061240       0.00000000
Si      -1.82008172       0.88655068      -1.15052380       0.00000000
Si       1.77342716       1.48214566      -0.33615659       0.00000000
H        1.38557854       0.27538245      -2.91521463       0.00000000
Si       0.13304043       1.53284014       3.06161575       0.00000000
Si      -2.85395916      -1.26087859      -1.54485573       0.00000000
Si       2.12972204       2.12981978       1.89507477       0.00000000
Si      -0.70200127       2.32903019      -2.70462807       0.00000000
Si       0.78473818       3.34021566      -1.23381898       0.00000000
