10
Lattice="16.290000149 0.0 0.0 0.0 16.290000149 0.0 0.0 0.0 29.1751946751" Properties=species:S:1:pos:R:3:initial_magmoms:R:1 pbc="T T T"
Si      -1.38298843       1.35924250      -1.32157797       0.00000000
Si      -1.37617921      -1.35532801       1.33272289       0.00000000
Si       1.35143470       1.36960294       1.34932358       0.00000000
Si       1.35035956      -1.37632582      -1.34833162       0.00000000
Si      -0.00622278      -2.69663033       2.68607265       0.00000000
Si      -0.03490947       2.73377154      -2.65786023       0.00000000
Si      -2.73948933      -0.01226637      -2.65856044       0.00000000
Si       2.72544734       0.02311551       2.68613100       0.00000000
Si      -2.69575067       0.01311345       2.71618145       0.00000000
Si       2.72978048      -0.03225420      -2.68286338       0.00000000
