10
Lattice="16.290000149 0.0 0.0 0.0 16.290000149 0.0 0.0 0.0 29.1751946751" Properties=species:S:1:pos:R:3:initial_magmoms:R:1 pbc="T T T"
Si      -1.32499603      -1.33565686      -1.33758348       0.00000000
Si       1.31726105      -1.43435569       1.27597714       0.00000000
Si      -1.44199081       1.33175150       1.28271661       0.00000000
Si       1.29774208       1.29094504      -1.47195859       0.00000000
Si       2.63153549      -0.05151387       2.64035512       0.00000000
Si      -0.07330500       2.68023771       2.62077856       0.00000000
Si      -2.74206314       0.00861741      -2.59070185       0.00000000
Si       2.65993222       2.68532019      -0.15296555       0.00000000
Si      -0.15280020       2.67567651      -2.69783025       0.00000000
Si      -0.08042373      -2.76912572       2.61007127       0.00000000
