10
Lattice="16.290000149 0.0 0.0 0.0 16.290000149 0.0 0.0 0.0 29.1751946751" Properties=species:S:1:pos:R:3:initial_magmoms:R:1 pbc="T T T"
Si      -1.36219014      -1.39437514      -1.31899305       0.00000000
Si       1.29435128      -1.35264016       1.43139340       0.00000000
Si      -1.34885095       1.32716260       1.40671119       0.00000000
Si       1.37396051       1.36161595      -1.35993460       0.00000000
Si      -2.65993222      -2.68532019       0.15296555       0.00000000
Si      -2.81273242      -0.00964368      -2.54486471       0.00000000
Si       0.06947033      -2.70229763      -2.67005547       0.00000000
Si       2.69540533       2.70234812       0.03325972       0.00000000
Si       2.65015171      -2.74886585       0.14403794       0.00000000
Si      -2.67900781       2.73585666       0.09621979       0.00000000
