10
Lattice="16.290000149 0.0 0.0 0.0 16.290000149 0.0 0.0 0.0 29.1751946751" Properties=species:S:1:pos:R:3:initial_magmoms:R:1 pbc="T T T"
Si       1.36924948      -1.35604477       1.33995834       0.00000000
Si       1.39768478       1.33477003      -1.33409413       0.00000000
Si      -1.35042472       1.36010098       1.36011840       0.00000000
Si      -1.35783667      -1.34767171      -1.36700375       0.00000000
Si       0.08042373       2.76912572      -2.61007127       0.00000000
Si       0.02107926      -2.70909218       2.69625479       0.00000000
Si       2.69890605      -2.70668126      -0.04977288       0.00000000
Si      -2.70987410      -0.00423540       2.70130210       0.00000000
Si       2.68402839       0.00832419       2.73511615       0.00000000
Si      -2.71052570       2.71279327       0.00755638       0.00000000
