10
Lattice="16.290000149 0.0 0.0 0.0 16.290000149 0.0 0.0 0.0 29.1751946751" Properties=species:S:1:pos:R:3:initial_magmoms:R:1 pbc="T T T"
Si       1.37617921       1.35532801      -1.33272289       0.00000000
Si       1.36995643      -1.34130232       1.35334976       0.00000000
Si      -1.31957146       1.36844146       1.38345856       0.00000000
Si      -1.36681246      -1.36164853      -1.35215357       0.00000000
Si      -0.01822851      -2.70138701       2.66646692       0.00000000
Si      -0.00680922       2.71457051      -2.65430086       0.00000000
Si       2.72653878      -0.02099781      -2.68105451       0.00000000
Si      -2.68236029       0.01821222       2.73319059       0.00000000
Si      -2.70976007       2.71662142       0.05032721       0.00000000
Si       2.72157032      -2.71101440       0.00245072       0.00000000
