10
Lattice="16.290000149 0.0 0.0 0.0 16.290000149 0.0 0.0 0.0 29.1751946751" Properties=species:S:1:pos:R:3:initial_magmoms:R:1 pbc="T T T"
Si      -1.33685515      -1.44704071       1.25715914       0.00000000
Si       1.34374582      -1.36306576      -1.35232862       0.00000000
Si      -1.38720754       1.34179102      -1.34728131       0.00000000
Si       1.25820703       1.36725229       1.45479191       0.00000000
Si      -2.69765660      -0.07661187       2.51956981       0.00000000
Si       2.63720441       2.69421941       0.06614017       0.00000000
Si      -0.02775816       2.70612740      -2.68846501       0.00000000
Si       2.69191604      -0.01001835      -2.70862507       0.00000000
Si       2.68809512      -2.72008793       0.01438337       0.00000000
Si      -0.02707398      -2.71156826      -2.70672869       0.00000000
