10
Lattice="16.290000149 0.0 0.0 0.0 16.290000149 0.0 0.0 0.0 29.1751946751" Properties=species:S:1:pos:R:3:initial_magmoms:R:1 pbc="T T T"
Si      -1.46892470       1.20989089       1.33803278       0.00000000
Si       1.20120180       1.51655014      -1.31066645       0.00000000
Si      -0.22369591      -1.85132594      -1.43871638       0.00000000
Si       1.42898488      -1.18397350       1.45342067       0.00000000
H       -2.95227582      -1.25524225      -1.42663784       0.00000000
Si       2.09016340      -2.02717649      -2.03354024       0.00000000
Si      -2.62142592      -0.42694461       2.52172878       0.00000000
Si       2.57132114       0.17899452      -2.64248491       0.00000000
Si       3.14935550      -1.93995983       0.07454262       0.00000000
Si      -0.01341807       2.59797809       2.68928192       0.00000000
