10
Lattice="16.290000149 0.0 0.0 0.0 16.290000149 0.0 0.0 0.0 29.1751946751" Properties=species:S:1:pos:R:3:initial_magmoms:R:1 pbc="T T T"
H        1.99013303      -0.08625555      -1.06215214       0.00000000
Si       1.02724741      -1.33874479       1.61330074       0.00000000
Si       0.76536937       1.86742046      -1.28621763       0.00000000
Si      -0.77579497      -2.04322214      -1.00561061       0.00000000
Si      -1.07258248       1.11325861       1.86391566       0.00000000
H       -1.21842685       1.24991542      -2.37229343       0.00000000
H       -3.02288646       0.04408074      -1.28893093       0.00000000
H       -1.86776255       1.67554055      -2.41217592       0.00000000
H        2.32557671      -0.78778441       2.53147329       0.00000000
Si      -1.01950966       3.41296680      -0.65580003       0.00000000
