10
Lattice="16.290000149 0.0 0.0 0.0 16.290000149 0.0 0.0 0.0 29.1751946751" Properties=species:S:1:pos:R:3:initial_magmoms:R:1 pbc="T T T"
Si       1.34682463      -1.36063855       1.35472099       0.00000000
Si      -1.31427444      -1.38284182      -1.36437798       0.00000000
Si      -1.37920915       1.34876314       1.34036679       0.00000000
Si       1.32274801       1.38419389      -1.36192726       0.00000000
Si      -2.63153549       0.05151387      -2.64035512       0.00000000
Si       2.67854843      -0.01203179      -2.64928273       0.00000000
Si      -0.00819387       2.71757927       2.66474558       0.00000000
Si       2.66390372      -2.73165384      -0.03363900       0.00000000
Si       2.70428663       0.00150194       2.70439467       0.00000000
Si      -0.02793083      -2.70928766       2.70483230       0.00000000
