10
Lattice="16.290000149 0.0 0.0 0.0 16.290000149 0.0 0.0 0.0 29.1751946751" Properties=species:S:1:pos:R:3:initial_magmoms:R:1 pbc="T T T"
Si      -1.51971040      -1.33033915      -1.18935599       0.00000000
Si      -1.41755581       1.17797878       1.46584931       0.00000000
Si       1.38306988      -1.31707909       1.43200608       0.00000000
Si       0.77059846       1.49865558      -1.71693103       0.00000000
H        1.21122667      -2.08324667      -2.24634411       0.00000000
Si      -1.30284163       2.22068214      -2.56765053       0.00000000
Si      -0.14959107      -2.66789477      -2.52117445       0.00000000
Si      -2.55498878       0.20805588      -2.66865506       0.00000000
Si       0.02624319       2.61976597       2.74197232       0.00000000
H       -0.61778197       3.77450706       0.01432502       0.00000000
