10
Lattice="16.290000149 0.0 0.0 0.0 16.290000149 0.0 0.0 0.0 29.1751946751" Properties=species:S:1:pos:R:3:initial_magmoms:R:1 pbc="T T T"
Si      -0.44686728      -1.28474344       0.66429001       0.00000000
H        0.52940871      -1.54549747      -1.81516391       0.00000000
Si       1.56269971      -0.43909695      -2.03056437       0.00000000
Si       2.72857991      -0.59608369      -0.01207853       0.00000000
Si      -1.26197002      -0.30330351       2.60989621       0.00000000
Si      -2.32471334      -1.99484084      -0.60891549       0.00000000
Si       1.56333502      -2.65442294       0.58090730       0.00000000
Si      -2.77436622       0.99999424       1.32198642       0.00000000
Si      -1.86132800       2.82761823       0.14993133       0.00000000
Si       0.30079485       1.19804806      -3.18774012       0.00000000
