10
Lattice="16.2900001489832 0.0 0.0 0.0 16.2900001489832 0.0 0.0 0.0 29.40185373716267" Properties=species:S:1:pos:R:3:initial_magmoms:R:1 pbc="T T T"
Si       1.33065599       1.33970590       1.40613777       0.00000000
Si       1.38320916      -1.44476663      -1.25393026       0.00000000
Si      -1.36911831      -1.44239481       1.27685782       0.00000000
Si      -1.31518212       1.32053257      -1.45698240       0.00000000
Si      -2.68077283       2.62560593       0.04380582       0.00000000
Si       2.69600236       2.68843646      -0.01174898       0.00000000
Si       2.64377661      -0.10599903       2.75488901       0.00000000
Si       0.04329133      -2.60602047      -2.82552402       0.00000000
Si      -2.68668610      -2.75065286      -0.22711168       0.00000000
Si      -2.80737872      -0.13900257       2.64960097       0.00000000
