10
Lattice="16.2900001489832 0.0 0.0 0.0 16.2900001489832 0.0 0.0 0.0 29.40185373716267" Properties=species:S:1:pos:R:3:initial_magmoms:R:1 pbc="T T T"
H       -0.39785067       1.40314731      -0.39469048       0.00000000
Si       1.65710027       0.47149776       1.51945840       0.00000000
Si      -1.80419897      -1.33703434       0.54999108       0.00000000
H        0.62379298      -2.57553047       0.14345164       0.00000000
H       -0.23568372      -0.59347729       3.24131916       0.00000000
Si       2.40901409       2.33083187       0.26673362       0.00000000
Si       1.34745994      -2.97302277      -1.12958982       0.00000000
Si      -3.18263597      -0.84251881      -1.27645208       0.00000000
Si      -2.68518661       2.05019589       1.10498047       0.00000000
Si       2.34494552       1.73624523      -2.03310878       0.00000000
