10
Lattice="16.2900001489832 0.0 0.0 0.0 16.2900001489832 0.0 0.0 0.0 29.40185373716267" Properties=species:S:1:pos:R:3:initial_magmoms:R:1 pbc="T T T"
Si       1.51800142      -1.02922339       1.41963911       0.00000000
Si      -1.18548847       1.68374093       1.23546589       0.00000000
Si      -0.66205819      -1.35403459      -1.86963448       0.00000000
H        0.91188163       2.49877851      -1.04341299       0.00000000
H       -1.96258664       1.01625818      -2.02125984       0.00000000
Si       2.81742557      -1.05966353      -0.60088568       0.00000000
Si      -2.57748527       0.31925957       2.64889533       0.00000000
Si       0.19647369      -2.59564211       2.64822203       0.00000000
Si       0.36202896      -0.32738502      -3.75849777       0.00000000
Si       2.22004683       3.07635675      -0.54269942       0.00000000
