10
Lattice="16.2900001489832 0.0 0.0 0.0 16.2900001489832 0.0 0.0 0.0 29.40185373716267" Properties=species:S:1:pos:R:3:initial_magmoms:R:1 pbc="T T T"
H       -1.51189120       0.19002285       0.08526538       0.00000000
Si       0.29628252      -1.52360860      -1.77772428       0.00000000
Si       1.18975645       1.96028975      -0.70288072       0.00000000
Si       0.61077727      -1.09742473       2.05954105       0.00000000
H       -0.34204113       1.47378889       2.63734628       0.00000000
H       -2.13944717       2.50559750      -0.61970287       0.00000000
Si       0.42505497      -3.37765008       1.38303380       0.00000000
Si       1.47310471      -3.32995296      -0.73093008       0.00000000
Si       3.45416421       1.18687312      -0.75518661       0.00000000
Si      -1.87559804      -2.26463256      -2.39001789       0.00000000
