10
Lattice="16.2900001489832 0.0 0.0 0.0 16.2900001489832 0.0 0.0 0.0 29.40185373716267" Properties=species:S:1:pos:R:3:initial_magmoms:R:1 pbc="T T T"
Si       1.51189120      -0.19002285      -0.08526538       0.00000000
H       -0.62755597       2.31557465      -0.70496825       0.00000000
Si      -2.30404133      -1.11881350       1.04738224       0.00000000
H        1.16985007       1.28376604       2.55208090       0.00000000
Si       1.80817373      -1.71363145      -1.86298966       0.00000000
Si      -1.36192546      -2.83592613      -0.32436125       0.00000000
Si       2.12266847      -1.28744758       1.97427567       0.00000000
Si      -1.79201405       2.07516683      -1.63086202       0.00000000
Si      -3.18213750       0.43165242      -0.55357810       0.00000000
Si       2.70164765       1.77026690      -0.78814609       0.00000000
