10
Lattice="16.2900001489832 0.0 0.0 0.0 16.2900001489832 0.0 0.0 0.0 29.40185373716267" Properties=species:S:1:pos:R:3:initial_magmoms:R:1 pbc="T T T"
Si       1.26855118       1.31918050       1.48625195       0.00000000
Si      -1.44329401       1.36088290      -1.27715772       0.00000000
Si       1.17962407      -1.27190692      -1.66160166       0.00000000
Si      -1.35915616      -1.34938216       1.46411235       0.00000000
Si      -2.41025213      -0.40941657      -2.57212532       0.00000000
Si       2.56126043      -2.68475492      -0.22691175       0.00000000
Si       2.56471391       2.72407898       0.10829879       0.00000000
Si      -0.75952126      -2.21557034      -2.94928231       0.00000000
Si      -2.82620100       2.62523126       0.14155817       0.00000000
Si       2.69325830      -0.03010392       2.81992003       0.00000000
