10
Lattice="16.2900001489832 0.0 0.0 0.0 16.2900001489832 0.0 0.0 0.0 29.40185373716267" Properties=species:S:1:pos:R:3:initial_magmoms:R:1 pbc="T T T"
Si      -1.02684016       1.17074765       1.67564105       0.00000000
Si       1.15874029       1.40667572      -1.45886118       0.00000000
Si      -1.48333483      -1.38792267      -1.23199648       0.00000000
Si       1.94722517      -0.60879640       1.24475688       0.00000000
H       -0.79557103      -0.94189432       2.88317518       0.00000000
Si       0.62398846       1.95903705       3.06717198       0.00000000
Si       2.62708832      -0.02494651      -2.65190020       0.00000000
Si       2.46826082       2.82424782      -0.14709747       0.00000000
Si      -0.13401783      -2.68120208      -2.67477484       0.00000000
Si       2.65654064      -2.68701761       0.32994760       0.00000000
