10
Lattice="16.2900001489832 0.0 0.0 0.0 16.2900001489832 0.0 0.0 0.0 29.40185373716267" Properties=species:S:1:pos:R:3:initial_magmoms:R:1 pbc="T T T"
Si      -1.10656342       0.88379767      -0.59638720       0.00000000
H        2.04048542      -0.81204022       1.11774087       0.00000000
Si      -0.80596405      -2.91503037      -0.57612932       0.00000000
Si       1.95949154       1.71175322      -1.74141299       0.00000000
Si      -2.07490619      -0.25366788      -2.41621494       0.00000000
Si      -2.46148418       1.82363294       1.15808022       0.00000000
Si       2.50688441      -0.69157567      -2.01511485       0.00000000
Si      -0.28137717       2.45956196      -2.17867736       0.00000000
Si       1.98055451      -0.48032694       2.59594847       0.00000000
Si       2.51051708       2.15576975       0.62293708       0.00000000
