10
Lattice="16.2900001489832 0.0 0.0 0.0 16.2900001489832 0.0 0.0 0.0 29.40185373716267" Properties=species:S:1:pos:R:3:initial_magmoms:R:1 pbc="T T T"
H       -0.16294887      -1.48149406      -0.27411348       0.00000000
Si      -2.09587142       0.97738372      -0.45849251       0.00000000
Si      -0.10884978      -0.23447826       2.42874013       0.00000000
Si       1.55729143       0.61204789      -1.88877508       0.00000000
H        2.67463883      -1.12098007      -0.26982081       0.00000000
H        0.80596405       2.91503037       0.57612932       0.00000000
H       -0.36378828      -3.35487177       0.74374929       0.00000000
Si      -1.26894214       2.66136248      -1.84008561       0.00000000
Si       2.59125032      -2.63401157      -0.43935190       0.00000000
Si      -3.22110318      -0.46900539      -1.84928839       0.00000000
