10
Lattice="16.2900001489832 0.0 0.0 0.0 16.2900001489832 0.0 0.0 0.0 29.40185373716267" Properties=species:S:1:pos:R:3:initial_magmoms:R:1 pbc="T T T"
Si      -0.82826506      -2.22601223       0.09673210       0.00000000
Si      -0.79377913       0.81850735       2.11737450       0.00000000
Si      -1.01159272       1.54184851      -1.54392074       0.00000000
Si       2.35528967       0.04921209      -0.58292115       0.00000000
H        0.37067895       1.05891517       3.04326827       0.00000000
Si       0.36826803       1.26107407      -3.47015379       0.00000000
H        2.28685538       2.74510938       1.17457466       0.00000000
Si      -2.88625897      -2.05338710       1.28077415       0.00000000
Si       3.29593944       1.63180189       0.86129790       0.00000000
Si      -1.05834502       3.66696048      -0.47148813       0.00000000
