10
Lattice="16.2900001489832 0.0 0.0 0.0 16.2900001489832 0.0 0.0 0.0 29.40185373716267" Properties=species:S:1:pos:R:3:initial_magmoms:R:1 pbc="T T T"
H       -1.00908406       1.11330748       0.31327675       0.00000000
H        1.81571600      -1.03897621      -0.72378543       0.00000000
Si      -0.94064977      -1.58258980      -1.44421906       0.00000000
Si       1.95471857       1.08659188      -0.70088139       0.00000000
Si       0.40394313      -1.11819448       2.09879253       0.00000000
H        2.01464948       0.75487861      -2.17908899       0.00000000
Si       2.53104248      -2.37985499      -0.38942755       0.00000000
Si       0.41936976      -3.43266141      -0.79999504       0.00000000
Si       0.22030596       0.70837066       3.55982944       0.00000000
H       -0.02583594       1.56691882      -3.29682986       0.00000000
