10
Lattice="16.2900001489832 0.0 0.0 0.0 16.2900001489832 0.0 0.0 0.0 29.40185373716267" Properties=species:S:1:pos:R:3:initial_magmoms:R:1 pbc="T T T"
Si      -1.16445808      -0.24040782      -0.92589378       0.00000000
H        0.62755597      -2.31557465       0.70496825       0.00000000
H       -0.04085532       0.50650497       2.80690677       0.00000000
Si      -1.93878695       2.01968309      -1.15966792       0.00000000
Si      -0.89629210       2.87241573       0.85932798       0.00000000
H        1.91617643       1.68619421      -1.86869362       0.00000000
Si      -2.55458153      -1.88392223       0.15139014       0.00000000
Si      -0.37067895      -1.05891517      -3.04326827       0.00000000
Si       2.13944717      -2.50559750       0.61970287       0.00000000
Si       3.32920362      -0.54530776      -0.08317784       0.00000000
