10
Lattice="16.2900001489832 0.0 0.0 0.0 16.2900001489832 0.0 0.0 0.0 29.40185373716267" Properties=species:S:1:pos:R:3:initial_magmoms:R:1 pbc="T T T"
Si      -0.02545638       0.67819995      -2.16282976       0.00000000
Si      -2.27034547       0.02849773       0.52367642       0.00000000
Si       0.91187348       1.59184090       1.44436606       0.00000000
H        2.28733594      -0.64704858      -1.49967095       0.00000000
H       -1.33562526      -1.63597376      -2.28928714       0.00000000
Si       0.03936153      -1.44850844       3.17016667       0.00000000
Si      -2.10267249      -0.61169765       2.77506456       0.00000000
Si       0.88098764      -3.38723023      -0.55498939       0.00000000
Si       2.68518661      -2.05019589      -1.10498047       0.00000000
Si       1.79194074       0.16638932       3.09025244       0.00000000
