10
Lattice="16.2900001489832 0.0 0.0 0.0 16.2900001489832 0.0 0.0 0.0 29.40185373716267" Properties=species:S:1:pos:R:3:initial_magmoms:R:1 pbc="T T T"
Si       1.35492076      -0.93983527      -1.75446742       0.00000000
Si      -0.85506211       1.69055993      -1.53692310       0.00000000
Si      -1.86696434      -1.35539317       0.80596361       0.00000000
Si       1.76756276       0.81839332       1.54589067       0.00000000
H       -0.99184924       2.57987990       1.74247146       0.00000000
H        2.46148418      -1.82363294      -1.15808022       0.00000000
H       -2.78804982       1.08910054       1.71059985       0.00000000
Si       2.29219850       2.58854618      -0.05330556       0.00000000
Si       1.28210446       2.54244548      -2.21310693       0.00000000
H        1.47823606      -2.27724428       2.45202640       0.00000000
