10
Lattice="16.2900001489832 0.0 0.0 0.0 16.2900001489832 0.0 0.0 0.0 29.40185373716267" Properties=species:S:1:pos:R:3:initial_magmoms:R:1 pbc="T T T"
Si      -1.11474100      -0.99473257      -1.83764526       0.00000000
Si       2.13716657       0.85188556      -0.67618383       0.00000000
Si      -1.82825930       1.35187453       0.77373918       0.00000000
Si       0.85506211      -1.69055993       1.53692310       0.00000000
H       -0.13678713       0.88931998       3.27939456       0.00000000
Si       2.20998287      -2.63039519      -0.21754432       0.00000000
Si       3.14726061       0.89798626       1.48361754       0.00000000
H       -0.50748237       3.57101238      -0.15688829       0.00000000
H        0.35199432       1.58895919      -3.25475581       0.00000000
Si       3.03516912      -1.05463090      -1.79983448       0.00000000
