10
Lattice="16.2900001489832 0.0 0.0 0.0 16.2900001489832 0.0 0.0 0.0 29.40185373716267" Properties=species:S:1:pos:R:3:initial_magmoms:R:1 pbc="T T T"
Si       1.36316350       1.34772058       1.39186023       0.00000000
Si       1.48742362      -1.24146091      -1.36838285       0.00000000
Si      -1.42628725       1.27524637      -1.40890449       0.00000000
Si      -1.32186835      -1.42946380       1.42820093       0.00000000
Si       2.71252937      -2.57937491       0.16137207       0.00000000
Si      -2.78617647       2.54896148       0.07648304       0.00000000
Si      -2.44566659      -0.35443782      -2.89357756       0.00000000
Si       2.65497680       2.78276355      -0.02276880       0.00000000
Si       0.01506825       2.68037291       2.77645233       0.00000000
Si      -2.68951160      -2.80150536       0.01557122       0.00000000
