10
Lattice="16.2900001489832 0.0 0.0 0.0 16.2900001489832 0.0 0.0 0.0 29.40185373716267" Properties=species:S:1:pos:R:3:initial_magmoms:R:1 pbc="T T T"
Si      -1.65710027      -0.47149776      -1.51945840       0.00000000
Si       1.38795688      -1.88094116      -0.14915560       0.00000000
Si      -0.99885394       0.09915723       2.13328090       0.00000000
Si       0.75191383       1.85933410      -1.25272478       0.00000000
H       -1.89278399      -1.06497505       1.72186076       0.00000000
H       -2.05495094       0.93164954      -1.91414888       0.00000000
H        0.76149235       1.86991771       2.42521191       0.00000000
H        3.16081389       0.42023313       0.34400169       0.00000000
Si       3.18422262      -0.96829390       1.01686311       0.00000000
H       -1.03330729      -3.04702824      -1.37600675       0.00000000
