10
Lattice="16.2900001489832 0.0 0.0 0.0 16.2900001489832 0.0 0.0 0.0 29.40185373716267" Properties=species:S:1:pos:R:3:initial_magmoms:R:1 pbc="T T T"
Si       0.34686297      -1.98197174      -1.18880515       0.00000000
Si       1.42133509       1.37925802      -1.25960482       0.00000000
Si      -2.05029200       1.14284125      -0.14897919       0.00000000
Si       1.25159329      -0.24192279       2.01928991       0.00000000
H       -1.33745788      -0.73264276       2.15077500       0.00000000
H       -2.08774271      -0.79431670       2.27540946       0.00000000
Si       3.16897518      -0.80612695       0.65874853       0.00000000
H       -2.93718477      -1.99063802       0.60697187       0.00000000
Si       2.71713944      -1.93122839      -1.45054045       0.00000000
Si      -0.17777277      -3.75212460       0.41039107       0.00000000
