10
Lattice="16.2900001489832 0.0 0.0 0.0 16.2900001489832 0.0 0.0 0.0 29.40185373716267" Properties=species:S:1:pos:R:3:initial_magmoms:R:1 pbc="T T T"
Si      -1.43597980      -1.32590844      -1.32189558       0.00000000
Si      -1.32862870       1.28923134       1.47497339       0.00000000
Si       1.33926607      -1.42039459       1.40820178       0.00000000
Si       1.23865903       1.39747839      -1.52122839       0.00000000
Si       2.60211575       2.65654879       0.01184895       0.00000000
Si       0.00405621      -2.66213626      -2.61956110       0.00000000
Si      -2.68175756       2.73285115       0.16979571       0.00000000
Si      -2.81096985       0.15494885      -2.64928637       0.00000000
Si       2.76729636      -2.70693376      -0.00288138       0.00000000
Si      -2.72779310      -2.76095140       0.09273345       0.00000000
