10
Lattice="16.2900001489832 0.0 0.0 0.0 16.2900001489832 0.0 0.0 0.0 29.40185373716267" Properties=species:S:1:pos:R:3:initial_magmoms:R:1 pbc="T T T"
Si      -0.38431368       0.96940488      -2.15718461       0.00000000
Si      -1.34861653       1.24689688       1.56094441       0.00000000
Si       1.09828810      -2.12795783      -0.30795502       0.00000000
Si       1.73952767      -0.55753666       1.59649126       0.00000000
H        2.63842616       1.41972727       0.06103825       0.00000000
H       -1.28459683      -0.47970304       2.89252497       0.00000000
Si      -2.09937377       2.20148438      -1.19909580       0.00000000
Si      -0.99022024       3.38490402       0.62093775       0.00000000
Si      -1.71235595      -0.46057858      -3.46506727       0.00000000
Si      -3.75756546       0.36481130      -1.00404390       0.00000000
