10
Lattice="16.2900001489832 0.0 0.0 0.0 16.2900001489832 0.0 0.0 0.0 29.40185373716267" Properties=species:S:1:pos:R:3:initial_magmoms:R:1 pbc="T T T"
Si      -1.26447868       0.05442489       2.02264172       0.00000000
Si       2.03781386       0.71239429       1.04420684       0.00000000
Si      -0.30687102      -2.22502017      -0.91348619       0.00000000
Si      -0.52921323       1.74483821      -1.62151223       0.00000000
H        2.19890567      -0.16754265       2.28572951       0.00000000
H        0.35416089      -0.68066137      -3.49305783       0.00000000
Si      -3.37260018      -0.53945964       1.19321543       0.00000000
Si       0.63162847      -2.13379780      -3.10286583       0.00000000
Si      -1.46984671       2.28444446       2.89908158       0.00000000
Si       0.71662969       3.76243617      -1.11412444       0.00000000
