10
Lattice="16.2900001489832 0.0 0.0 0.0 16.2900001489832 0.0 0.0 0.0 29.40185373716267" Properties=species:S:1:pos:R:3:initial_magmoms:R:1 pbc="T T T"
Si       1.44178230      -1.25222046       1.27274744       0.00000000
Si      -1.96276257      -0.44741300       1.20338847       0.00000000
Si      -0.05316730      -1.57644033      -1.74441198       0.00000000
Si       0.73852996       2.17030857      -0.56598568       0.00000000
Si       1.06848066      -3.07072204      -0.07515114       0.00000000
Si      -3.23869312      -0.04546197      -0.74213219       0.00000000
Si      -2.42090253      -2.00975433      -1.79745293       0.00000000
Si       3.26109839       0.13111007       1.57711543       0.00000000
Si      -1.64818638       0.70786241       3.23102851       0.00000000
H       -2.41164981       2.75233399       1.10574492       0.00000000
