10
Lattice="16.2900001489832 0.0 0.0 0.0 16.2900001489832 0.0 0.0 0.0 29.40185373716267" Properties=species:S:1:pos:R:3:initial_magmoms:R:1 pbc="T T T"
Si       0.75256543      -0.36225702      -2.15312627       0.00000000
Si       1.86714353       0.86926699       1.17462552       0.00000000
Si      -0.79359994      -1.95191669       1.17249977       0.00000000
Si      -1.71432704       1.72428023       0.04028289       0.00000000
Si      -2.17650692      -0.68756833       2.59121565       0.00000000
Si       0.59386825       2.20692035       2.60621942       0.00000000
Si      -1.18773649      -1.45492507      -2.91413445       0.00000000
Si      -3.46248840       0.56534446       1.08055135       0.00000000
Si       2.88225489      -1.33695289      -1.96377833       0.00000000
Si      -0.63123751       3.54483435       1.07646449       0.00000000
