10
Lattice="16.2900001489832 0.0 0.0 0.0 16.2900001489832 0.0 0.0 0.0 29.40185373716267" Properties=species:S:1:pos:R:3:initial_magmoms:R:1 pbc="T T T"
Si      -1.67823654       1.03783591       1.22887988       0.00000000
Si      -0.70235639      -1.22838004      -1.91388427       0.00000000
Si       0.87809617      -1.55046592       1.60096034       0.00000000
Si       1.39012345       1.64351440      -1.07728392       0.00000000
H        2.55458153       1.88392223      -0.15139014       0.00000000
H        3.18213750      -0.43165242       0.55357810       0.00000000
Si       1.35563752      -1.40100517      -3.09792632       0.00000000
Si      -3.49324392      -0.52084017       1.22729218       0.00000000
Si       1.82021204      -3.26757855       0.22921685       0.00000000
Si      -2.83151154       2.44467290      -0.27440750       0.00000000
