10
Lattice="16.2900001489832 0.0 0.0 0.0 16.2900001489832 0.0 0.0 0.0 29.40185373716267" Properties=species:S:1:pos:R:3:initial_magmoms:R:1 pbc="T T T"
Si      -1.41361363      -1.27092952      -1.33565859       0.00000000
Si      -1.44067132       1.28236510       1.36198207       0.00000000
Si       1.25302681      -1.47307213       1.35592529       0.00000000
Si       1.35319402       1.30983004      -1.50384896       0.00000000
Si      -0.00021177       2.59802696       2.66369034       0.00000000
Si       2.70932024      -0.09668115       2.55337459       0.00000000
Si      -0.14033835      -2.60858288      -2.76725249       0.00000000
Si      -2.76297951       2.65616597      -0.10517043       0.00000000
Si       2.64883547      -2.78138721      -0.01361306       0.00000000
Si       2.73210995       2.71018361      -0.20078526       0.00000000
