10
Lattice="16.2900001489832 0.0 0.0 0.0 16.2900001489832 0.0 0.0 0.0 29.40185373716267" Properties=species:S:1:pos:R:3:initial_magmoms:R:1 pbc="T T T"
Si       0.74412721      -2.02347866       1.13197137       0.00000000
Si      -0.17014905       0.30253788      -2.41906692       0.00000000
Si       1.61385031       1.81496666       0.27708307       0.00000000
Si      -1.93689731       0.77455693       1.27906884       0.00000000
H        2.84149731      -1.20844108      -1.14690751       0.00000000
H       -0.03297096      -2.69096141      -2.12475436       0.00000000
Si      -2.20301075       1.42524469      -2.26329590       0.00000000
Si       2.08914365      -0.80988994       2.68468620       0.00000000
Si      -2.44348373       2.56808594      -0.25226791       0.00000000
Si      -0.75507409       1.89317495       2.99014206       0.00000000
