10
Lattice="16.2900001489832 0.0 0.0 0.0 16.2900001489832 0.0 0.0 0.0 29.40185373716267" Properties=species:S:1:pos:R:3:initial_magmoms:R:1 pbc="T T T"
Si      -1.62857647      -1.03047283      -1.36668637       0.00000000
Si       0.98170057       1.80693569      -1.23082040       0.00000000
Si      -1.52041087       0.03538188       1.90985621       0.00000000
Si       1.82806382      -1.64162476      -0.12481087       0.00000000
Si      -0.28652481      -2.28051857      -2.79585167       0.00000000
Si       2.39893058       0.54470503      -2.68800567       0.00000000
Si      -2.52613919      -2.76661218       0.05262932       0.00000000
Si       0.90603352      -3.55131777      -1.19583220       0.00000000
Si       2.82313848      -1.81473860       1.96436725       0.00000000
Si       1.39175245       1.51187491       3.37106954       0.00000000
