10
Lattice="16.2900001489832 0.0 0.0 0.0 16.2900001489832 0.0 0.0 0.0 29.40185373716267" Properties=species:S:1:pos:R:3:initial_magmoms:R:1 pbc="T T T"
Si       0.88723486       1.13238307       1.80530322       0.00000000
Si       0.26674875      -2.21770433       0.59515232       0.00000000
Si      -2.24837840       0.38102310       0.41056749       0.00000000
Si       0.75233737       1.69171652      -1.55832765       0.00000000
H        1.92371870      -1.35003376      -1.39541198       0.00000000
H       -2.27178713       1.76955014      -0.26229394       0.00000000
Si       0.49767579       3.12960876       0.60367886       0.00000000
Si       0.11109780       0.12129534      -3.46277392       0.00000000
Si      -1.30036555      -2.33794082       2.49433566       0.00000000
Si       3.12399849       0.42694461       1.88671695       0.00000000
