10
Lattice="16.2900001489832 0.0 0.0 0.0 16.2900001489832 0.0 0.0 0.0 29.40185373716267" Properties=species:S:1:pos:R:3:initial_magmoms:R:1 pbc="T T T"
Si       0.80029513       0.98767900       1.97586337       0.00000000
Si       1.33475374      -1.45235125      -1.27701071       0.00000000
Si      -0.65749699       1.78818427      -1.49032116       0.00000000
Si      -1.28956528      -1.59257557       1.33810777       0.00000000
H        1.07111638      -2.61900848      -0.33665123       0.00000000
Si      -3.29219274      -0.40298202       1.50546312       0.00000000
Si      -2.86089870       1.24121656      -2.17409067       0.00000000
Si      -1.09586089       2.19802112       2.97193938       0.00000000
Si       3.60924501      -0.87845455      -1.24513910       0.00000000
Si       3.14880816       1.47536902       1.86051990       0.00000000
