10
Lattice="16.2900001489832 0.0 0.0 0.0 16.2900001489832 0.0 0.0 0.0 29.40185373716267" Properties=species:S:1:pos:R:3:initial_magmoms:R:1 pbc="T T T"
Si       1.31756779       1.30825806       1.50396950       0.00000000
Si      -1.30378645      -1.31585246       1.53804625       0.00000000
Si       1.40844970      -1.42178633      -1.36982943       0.00000000
Si      -1.36550926       1.49311535      -1.36915612       0.00000000
Si       2.72997743       0.14463240      -2.59841235       0.00000000
Si      -2.80033248       0.06280121      -2.58474048       0.00000000
Si      -2.68270238      -2.71620603       0.23498256       0.00000000
Si       2.68668610       2.75065286       0.22711168       0.00000000
Si      -0.12069261       2.61165029       2.87671265       0.00000000
Si       2.73299238      -2.76553215       0.14647415       0.00000000
