10
Lattice="16.2900001489832 0.0 0.0 0.0 16.2900001489832 0.0 0.0 0.0 29.40185373716267" Properties=species:S:1:pos:R:3:initial_magmoms:R:1 pbc="T T T"
Si       1.36911831       1.44239481      -1.27685782       0.00000000
Si      -1.43826040       1.30339223       1.37274315       0.00000000
Si       1.36001904      -1.30345202       1.46938704       0.00000000
Si      -1.31756779      -1.30825806      -1.50396950       0.00000000
Si      -2.62135424      -2.62411051       0.03407675       0.00000000
Si       2.75232747      -0.00237182      -2.53078808       0.00000000
Si      -0.12901680       2.67435865       2.76362724       0.00000000
Si       2.69977430       2.78210071       0.12927995       0.00000000
Si       0.05393619       2.76292738      -2.73384022       0.00000000
Si       2.69014854      -2.80289326       0.20887077       0.00000000
