10
Lattice="16.2900001489832 0.0 0.0 0.0 16.2900001489832 0.0 0.0 0.0 29.40185373716267" Properties=species:S:1:pos:R:3:initial_magmoms:R:1 pbc="T T T"
Si       1.30924360       1.37096641       1.39088409       0.00000000
Si      -1.34827444       1.43597980      -1.32393607       0.00000000
Si       1.43826040      -1.30339223      -1.37274315       0.00000000
Si      -1.27557217      -1.31995102       1.51757668       0.00000000
Si      -2.61112412      -2.64096358       0.07241677       0.00000000
Si       0.12660588       2.76460851      -2.60579515       0.00000000
Si       2.79827945      -2.60684425       0.09664389       0.00000000
Si      -2.57973329       2.83156041       0.18981837       0.00000000
Si       2.80737872       0.13900257      -2.64960097       0.00000000
Si       2.66528837       0.07980471       2.80843567       0.00000000
