10
Lattice="16.2900001489832 0.0 0.0 0.0 16.2900001489832 0.0 0.0 0.0 29.40185373716267" Properties=species:S:1:pos:R:3:initial_magmoms:R:1 pbc="T T T"
Si       2.27034547      -0.02849773      -0.52367642       0.00000000
Si       0.16767297      -0.64019538       2.25138815       0.00000000
Si      -0.60789394       2.18206996       0.61770355       0.00000000
Si      -1.22150566      -1.35872448      -1.50446345       0.00000000
H        0.93472021      -1.66447149      -2.81296355       0.00000000
Si       1.30340689       2.54271427       2.03734265       0.00000000
Si       2.24488908       0.64970222      -2.68650618       0.00000000
Si      -2.26962056       1.63282002       2.23780449       0.00000000
Si      -1.12076830      -2.52956824       2.38381410       0.00000000
Si       3.18221895       1.56334317       0.92068965       0.00000000
