10
Lattice="16.2900001489832 0.0 0.0 0.0 16.2900001489832 0.0 0.0 0.0 29.40185373716267" Properties=species:S:1:pos:R:3:initial_magmoms:R:1 pbc="T T T"
Si      -1.25159329       1.66068407       1.08754517       0.00000000
Si      -1.47747043      -1.45972411      -1.13702849       0.00000000
Si       1.66172663       0.54924994      -1.62010094       0.00000000
Si       1.37453392      -1.01098999       1.69116523       0.00000000
H       -0.71140060       2.49077360      -1.71553936       0.00000000
Si       2.43729353      -2.27301540       0.01358366       0.00000000
Si       2.26962056      -1.63282002      -2.23780449       0.00000000
Si      -1.08791137      -3.45694980       0.06459587       0.00000000
Si      -1.24884028       3.37237212      -0.61879141       0.00000000
Si       3.57302746       0.90989425      -0.20046184       0.00000000
