10
Lattice="16.2900001489832 0.0 0.0 0.0 16.2900001489832 0.0 0.0 0.0 29.40185373716267" Properties=species:S:1:pos:R:3:initial_magmoms:R:1 pbc="T T T"
Si       0.35929224       0.12551445       1.46944585       0.00000000
H       -1.47991393       1.11443149      -1.33537339       0.00000000
Si       0.76346344      -2.04447158       2.12528360       0.00000000
Si       2.17429962       1.68419054       1.47103355       0.00000000
Si      -1.72224398       0.17910855       2.62099885       0.00000000
Si       0.44888724      -3.19974699       0.09764356       0.00000000
Si       1.02102463       3.09102753      -0.03225383       0.00000000
Si      -0.82704331      -2.79779596      -1.84787711       0.00000000
Si       1.52862103       0.37879137      -3.16328664       0.00000000
Si      -1.46082205       2.16955109      -2.42574114       0.00000000
