10
Lattice="16.2900001489832 0.0 0.0 0.0 16.2900001489832 0.0 0.0 0.0 29.40185373716267" Properties=species:S:1:pos:R:3:initial_magmoms:R:1 pbc="T T T"
Si      -1.38179926      -1.30924360       1.42075638       0.00000000
Si      -1.39766572       1.35094600      -1.37712403       0.00000000
Si       1.30473127       1.34920297       1.48670473       0.00000000
Si       1.35291709      -1.37415925      -1.44351341       0.00000000
Si       2.64685656       2.64481184      -0.03481179       0.00000000
Si       2.67163105      -2.70951572      -0.01934642       0.00000000
Si      -2.71103069      -2.68842017      -0.03581146       0.00000000
Si      -2.79347439       2.65926107      -0.00758568       0.00000000
Si      -0.05422941      -2.79153588       2.68971098       0.00000000
Si      -0.05556519       2.73241946      -2.75878476       0.00000000
