10
Lattice="16.2900001489832 0.0 0.0 0.0 16.2900001489832 0.0 0.0 0.0 29.40185373716267" Properties=species:S:1:pos:R:3:initial_magmoms:R:1 pbc="T T T"
Si      -0.53743968       0.88159852       1.09674795       0.00000000
Si      -2.25821756       1.71745472      -0.38898652       0.00000000
Si       1.23038371       1.30621366      -2.35167787       0.00000000
Si      -0.54019269      -0.83008954       2.80308453       0.00000000
Si       2.03113496      -0.92582587      -2.07924029       0.00000000
Si       2.37312722      -1.94152367       0.09543842       0.00000000
Si       1.20260926       2.52804512       1.30982318       0.00000000
Si      -1.05769342       1.59614308      -2.44058908       0.00000000
Si       0.71140060      -2.49077360       1.71553936       0.00000000
H       -2.89642719      -1.62698005       0.78017819       0.00000000
