10
Lattice="16.2900001489832 0.0 0.0 0.0 16.2900001489832 0.0 0.0 0.0 29.40185373716267" Properties=species:S:1:pos:R:3:initial_magmoms:R:1 pbc="T T T"
Si       1.90268668       1.52651962      -0.38951576       0.00000000
Si      -0.24145038      -1.83114263       1.68463801       0.00000000
Si       1.68481444      -1.53065728      -1.14978889       0.00000000
Si      -0.48739680       1.48686976       2.05910002       0.00000000
Si      -2.07718679       0.39516282      -1.59610903       0.00000000
Si       2.01575557       1.47312100      -2.75366001       0.00000000
Si      -2.52226217      -2.22438323       1.68249168       0.00000000
Si       1.64196686      -0.74720602      -3.33699279       0.00000000
Si      -2.88363954       1.50952915       1.97739227       0.00000000
H        0.18731871      -0.87452866      -3.70919086       0.00000000
