10
Lattice="16.2900001489832 0.0 0.0 0.0 16.2900001489832 0.0 0.0 0.0 29.40185373716267" Properties=species:S:1:pos:R:3:initial_magmoms:R:1 pbc="T T T"
Si       1.15808869       2.00414243      -0.39968880       0.00000000
Si       1.15327500      -1.40683699       1.50328738       0.00000000
Si      -1.88426432       0.31978899       1.51987003       0.00000000
Si      -0.20103489      -0.52823583      -2.39134097       0.00000000
H       -1.02102463      -3.09102753       0.03225383       0.00000000
Si      -0.66173239      -2.96551308       1.50169968       0.00000000
H       -2.50093856      -1.97659604      -1.30311956       0.00000000
Si      -0.44698131       2.78977656      -2.01687896       0.00000000
Si      -0.96076792       2.25463376       2.50271519       0.00000000
Si      -2.48184668      -0.92147644      -2.39348731       0.00000000
