10
Lattice="16.2900001489832 0.0 0.0 0.0 16.2900001489832 0.0 0.0 0.0 29.40185373716267" Properties=species:S:1:pos:R:3:initial_magmoms:R:1 pbc="T T T"
Si       1.36434045       1.25569837      -1.38884419       0.00000000
Si      -1.49925016      -1.26946342      -1.26513913       0.00000000
Si      -1.37411038       1.40146129       1.29541627       0.00000000
Si       1.45642945      -1.42526098       1.17764715       0.00000000
Si       0.03437190      -2.70511742       2.61068762       0.00000000
Si       0.06354729       2.74691757       2.58128577       0.00000000
Si       2.72266013      -0.01148445       2.61209891       0.00000000
Si      -2.63324594       2.71814942      -0.22399214       0.00000000
Si      -2.71621091       0.01998783       2.67707701       0.00000000
Si      -0.43293933      -2.76654702      -2.68561530       0.00000000
