10
Lattice="16.2900001489832 0.0 0.0 0.0 16.2900001489832 0.0 0.0 0.0 29.40185373716267" Properties=species:S:1:pos:R:3:initial_magmoms:R:1 pbc="T T T"
Si      -1.19255833       1.27079920      -1.60001948       0.00000000
Si       0.92203030       1.90969301       1.07102133       0.00000000
Si       1.44935389      -1.41564988      -1.30317836       0.00000000
Si      -1.69065767      -0.93419893       1.44868814       0.00000000
Si      -2.53460999       2.52084494      -0.17085417       0.00000000
Si      -3.43217271       0.78470560       1.24846151       0.00000000
Si      -2.60418458      -2.75665899       0.11940093       0.00000000
Si      -2.64885176      -0.10559178      -2.79746878       0.00000000
Si      -0.90603352       3.55131777       1.19583220       0.00000000
Si       2.84248204       2.66784590      -0.18117422       0.00000000
