10
Lattice="16.2900001489832 0.0 0.0 0.0 16.2900001489832 0.0 0.0 0.0 29.40185373716267" Properties=species:S:1:pos:R:3:initial_magmoms:R:1 pbc="T T T"
Si       1.86807043      -0.98460019       1.05329201       0.00000000
Si      -1.96053410      -1.34918668      -0.16994271       0.00000000
Si      -0.48031065       1.45389880       1.88665815       0.00000000
Si       0.92248479       0.87869890      -2.08744341       0.00000000
H       -2.14218389       1.26993583      -1.78463372       0.00000000
H        0.03963357      -3.33224985       0.09776116       0.00000000
Si       1.49428171      -3.20492721       0.46995923       0.00000000
Si       2.85405690       1.88046875      -1.20906303       0.00000000
Si      -3.23511258       0.17466138      -1.76584593       0.00000000
Si       3.66612969       0.33788718       0.31065999       0.00000000
