10
Lattice="16.2900001489832 0.0 0.0 0.0 16.2900001489832 0.0 0.0 0.0 29.40185373716267" Properties=species:S:1:pos:R:3:initial_magmoms:R:1 pbc="T T T"
Si      -0.23656338      -1.93520315      -1.28071535       0.00000000
Si       1.96053410       1.34918668       0.16994271       0.00000000
Si      -0.26433783      -0.71337169       2.38078570       0.00000000
Si      -1.27457848       1.52384806      -1.59590322       0.00000000
H        2.00016767      -1.98306317       0.26770388       0.00000000
H       -0.18164979       2.61912251      -1.61469100       0.00000000
Si      -2.52464051      -1.64527373      -1.36962655       0.00000000
H       -1.46694709      -3.24141681       1.07096252       0.00000000
Si       1.48022344       2.80308549       2.05660087       0.00000000
Si      -2.00438678      -2.35981829       2.16771047       0.00000000
