10
Lattice="16.2900001489832 0.0 0.0 0.0 16.2900001489832 0.0 0.0 0.0 29.40185373716267" Properties=species:S:1:pos:R:3:initial_magmoms:R:1 pbc="T T T"
Si       0.14167413       2.22827654      -0.60532536       0.00000000
Si      -2.12164220       0.19429083       0.99431189       0.00000000
Si       1.60557499      -0.14335200       1.78281080       0.00000000
Si       0.48031065      -1.45389880      -1.88665815       0.00000000
Si       2.34838108      -2.43849899      -0.83336614       0.00000000
Si       2.23531219      -2.38510037       1.53077811       0.00000000
Si       2.40925193       2.82098820      -0.37875468       0.00000000
Si      -0.92056420       2.45249210      -2.65778057       0.00000000
Si      -1.60138846       1.04457997       3.22244317       0.00000000
Si      -1.48022344      -2.80308549      -2.05660087       0.00000000
