10
Lattice="16.2900001489832 0.0 0.0 0.0 16.2900001489832 0.0 0.0 0.0 29.40185373716267" Properties=species:S:1:pos:R:3:initial_magmoms:R:1 pbc="T T T"
Si      -1.05871969      -2.01005570       0.37837246       0.00000000
Si      -0.35722341       0.48413880      -2.29637298       0.00000000
Si      -1.70911424       1.24017400       1.10118763       0.00000000
Si       2.39624273      -0.02265939       0.08170775       0.00000000
Si      -0.79977385       3.40739562       0.91225132       0.00000000
Si       0.94962556       3.44667081      -0.67524297       0.00000000
Si      -3.56524572       0.57622618      -0.47745670       0.00000000
Si      -3.18070398      -1.71370802      -0.66124769       0.00000000
Si       2.88842880       2.28921743      -0.04892468       0.00000000
Si       0.36137736      -3.73391238      -0.29490059       0.00000000
