10
Lattice="16.2900001489832 0.0 0.0 0.0 16.2900001489832 0.0 0.0 0.0 29.40185373716267" Properties=species:S:1:pos:R:3:initial_magmoms:R:1 pbc="T T T"
Si      -0.85691917      -0.94490146       0.79784870       0.00000000
H       -1.68116060       1.12495483       0.34550118       0.00000000
Si      -1.41752323       2.29161206      -0.59485830       0.00000000
Si       0.71741161      -2.65388537       0.99898678       0.00000000
Si       0.85696804       2.86550877      -0.56298670       0.00000000
Si       2.38140254       1.30666978      -1.54838982       0.00000000
Si      -0.50163426      -0.57361978       3.09857316       0.00000000
Si      -3.08837226      -1.25030638      -0.12131205       0.00000000
Si       3.30559941       0.38965680       0.53984744       0.00000000
Si       2.84089132      -1.94435813       0.25758964       0.00000000
