10
Lattice="16.2900001489832 0.0 0.0 0.0 16.2900001489832 0.0 0.0 0.0 29.40185373716267" Properties=species:S:1:pos:R:3:initial_magmoms:R:1 pbc="T T T"
Si      -0.40127157      -0.31294719      -2.29099244       0.00000000
Si       1.77979003       1.49648086       0.59694584       0.00000000
Si      -1.62031744       1.76731841      -0.19140607       0.00000000
Si      -0.37585917      -1.85350880       1.50290516       0.00000000
Si      -1.44217000      -0.35642520       2.92338133       0.00000000
Si      -2.95204125       0.73562383       1.46006665       0.00000000
Si      -1.97560235       1.39603672      -2.49213052       0.00000000
Si       1.72220814       0.39658005      -3.03238959       0.00000000
Si       1.42142062       2.16873659       2.79967627       0.00000000
Si       3.80842284       0.36730692       0.25020978       0.00000000
