10
Lattice="16.2900001489832 0.0 0.0 0.0 16.2900001489832 0.0 0.0 0.0 29.40185373716267" Properties=species:S:1:pos:R:3:initial_magmoms:R:1 pbc="T T T"
Si      -0.14167413      -2.22827654       0.60532536       0.00000000
Si      -1.06223833       0.22421556      -2.05245520       0.00000000
Si       2.26757779       0.59271166       0.22657068       0.00000000
Si      -1.22859181       1.36405945       1.48123599       0.00000000
H       -2.42887160      -0.41291892      -1.80089294       0.00000000
Si      -2.26331633      -2.03398571       1.59963725       0.00000000
Si       0.05984946       3.25343231       1.34881004       0.00000000
Si       3.04350960       0.47789973      -1.98124391       0.00000000
Si       1.46390086      -2.37162854       2.38813617       0.00000000
Si       2.20188348       2.41662152       1.74391215       0.00000000
