10
Lattice="16.2900001489832 0.0 0.0 0.0 16.2900001489832 0.0 0.0 0.0 29.40185373716267" Properties=species:S:1:pos:R:3:initial_magmoms:R:1 pbc="T T T"
Si       1.75588283       1.16072767      -1.10398080       0.00000000
Si      -1.52443450       1.55883898       0.98540313       0.00000000
Si       0.92419687      -0.91701298       2.08823726       0.00000000
Si      -0.65801827      -1.11353554      -2.10284998       0.00000000
H       -2.38140254      -1.30666978       1.54838982       0.00000000
Si       3.04764726      -0.78126841      -1.50713902       0.00000000
Si       2.12918447       2.97922926       0.24391778       0.00000000
Si       1.37864389       2.53174295       2.38990028       0.00000000
Si       0.45948878      -3.25102791       1.80597946       0.00000000
Si      -2.59682150       0.04391784      -2.72916827       0.00000000
