10
Lattice="16.2900001489832 0.0 0.0 0.0 16.2900001489832 0.0 0.0 0.0 29.40185373716267" Properties=species:S:1:pos:R:3:initial_magmoms:R:1 pbc="T T T"
Si      -0.96643097      -1.87913297       1.00766033       0.00000000
Si       1.33414222      -1.26024328      -1.53733473       0.00000000
Si      -1.40411070       1.35413884      -1.39091349       0.00000000
Si       1.27485150       1.18260514       1.68122740       0.00000000
Si       0.71594160      -3.55156212       0.81643067       0.00000000
Si       2.60296870       2.64495845       0.15144895       0.00000000
Si       2.67102832      -2.70438437      -0.23427397       0.00000000
Si      -2.76307138      -2.78660001      -0.18790725       0.00000000
Si      -0.06198541       2.64974771      -2.91243002       0.00000000
Si      -2.70884197       0.00493587      -2.87761823       0.00000000
