10
Lattice="16.2900001489832 0.0 0.0 0.0 16.2900001489832 0.0 0.0 0.0 29.40185373716267" Properties=species:S:1:pos:R:3:initial_magmoms:R:1 pbc="T T T"
Si       0.83817589      -1.25674093      -0.09214541       0.00000000
H       -0.33775686       1.29770214      -1.04503009       0.00000000
Si      -2.15622587       0.30574701       1.30850010       0.00000000
Si       1.31016887       2.31417371       0.12645737       0.00000000
Si      -0.72483985      -3.02086650      -0.09820219       0.00000000
Si       1.33562526       1.63597376       2.28928714       0.00000000
Si      -1.28990737       2.09222083      -1.95722260       0.00000000
Si       2.05455998      -1.31204548      -2.08620853       0.00000000
Si      -1.88913503      -2.00494064       1.66308645       0.00000000
Si       2.21661290      -1.75125647       1.73429774       0.00000000
