10
Lattice="16.2900001489832 0.0 0.0 0.0 16.2900001489832 0.0 0.0 0.0 29.40185373716267" Properties=species:S:1:pos:R:3:initial_magmoms:R:1 pbc="T T T"
Si      -1.36434045      -1.25569837       1.38884419       0.00000000
Si       0.35836941      -0.67225573      -2.20273043       0.00000000
Si       1.45638058       1.40836825       1.15448496       0.00000000
Si       0.32034367       1.52881651      -3.25572842       0.00000000
Si      -1.98707458       1.72092449      -2.51491931       0.00000000
Si       0.09208900      -2.68095935       2.56649134       0.00000000
Si       0.03950195       2.80618059       2.48717690       0.00000000
Si       2.74495869       0.05261670       2.59807481       0.00000000
Si      -1.42142062      -2.16873659      -2.79967627       0.00000000
Si      -2.86359062      -2.52516179       0.12370507       0.00000000
