10
Lattice="16.2900001489832 0.0 0.0 0.0 16.2900001489832 0.0 0.0 0.0 29.40185373716267" Properties=species:S:1:pos:R:3:initial_magmoms:R:1 pbc="T T T"
Si      -1.45638058      -1.40836825      -1.15448496       0.00000000
Si       1.28857811      -1.35575155       1.44358986       0.00000000
Si       1.53242312       1.09131598      -1.46555892       0.00000000
Si      -1.41687864       1.39781233       1.33269194       0.00000000
Si       2.55180246       2.72100017       0.01911415       0.00000000
Si       2.63426244      -2.77519701       0.06372264       0.00000000
Si      -2.74142132       2.74155816      -0.18361164       0.00000000
Si      -2.82072104      -2.66406662       0.23435924       0.00000000
Si       2.65622136       0.01629000       2.85621956       0.00000000
Si      -0.09806091      -2.67555107       2.84645814       0.00000000
