10
Lattice="16.2900001489832 0.0 0.0 0.0 16.2900001489832 0.0 0.0 0.0 29.40185373716267" Properties=species:S:1:pos:R:3:initial_magmoms:R:1 pbc="T T T"
Si      -1.40393737       1.29712384       1.43189968       0.00000000
Si      -1.36764325      -1.37204155      -1.41262970       0.00000000
Si       1.29964879      -1.29226942       1.55412318       0.00000000
Si       1.32186835       1.42946380      -1.42820093       0.00000000
Si       2.62780508      -2.58667283       0.04866007       0.00000000
Si      -2.75428227      -2.69184107      -0.00976142       0.00000000
Si      -2.79837605       2.65241927       0.04283850       0.00000000
Si       2.68503185       2.77718439      -0.03634069       0.00000000
Si      -0.01365102       2.76060117       2.71229161       0.00000000
Si      -2.65622136      -0.01629000      -2.85621956       0.00000000
