10
Lattice="16.2900001489832 0.0 0.0 0.0 16.2900001489832 0.0 0.0 0.0 29.40185373716267" Properties=species:S:1:pos:R:3:initial_magmoms:R:1 pbc="T T T"
Si      -1.38001518      -1.25656174      -1.43713321       0.00000000
Si      -1.32901233       1.53132517       1.20638746       0.00000000
Si       1.36467847       1.40706505      -1.40276244       0.00000000
Si       1.28493892      -1.26135100       1.62674576       0.00000000
Si       0.52501041       2.30887946       2.55975479       0.00000000
Si       2.37985499       0.60543415       2.73081477       0.00000000
Si       2.70677900      -2.55213803       0.16344490       0.00000000
Si      -2.72214047      -2.55217061       0.08438332       0.00000000
Si       0.01433357      -2.58189986      -2.84442354       0.00000000
Si      -2.64477926       0.17650215      -2.87523668       0.00000000
