10
Lattice="16.2900001489832 0.0 0.0 0.0 16.2900001489832 0.0 0.0 0.0 29.40185373716267" Properties=species:S:1:pos:R:3:initial_magmoms:R:1 pbc="T T T"
Si      -0.81207280       1.54258156      -1.51972302       0.00000000
Si       1.15717645      -1.30704445      -1.53227761       0.00000000
Si      -1.79805927      -1.32248737       0.74263202       0.00000000
Si       1.11474100       0.99473257       1.83764526       0.00000000
H        1.46673532       2.58369176      -1.41711055       0.00000000
Si      -0.71351830       2.34660710       2.61138444       0.00000000
Si       2.35638110      -2.77312818      -0.19972679       0.00000000
Si      -2.74364490       0.54081171      -2.39810340       0.00000000
Si      -3.66612969      -0.33788718      -0.31065999       0.00000000
Si       2.98739055      -0.00006516      -2.25547500       0.00000000
