10
Lattice="16.2900001489832 0.0 0.0 0.0 16.2900001489832 0.0 0.0 0.0 29.40185373716267" Properties=species:S:1:pos:R:3:initial_magmoms:R:1 pbc="T T T"
H       -0.71488666      -0.94213216      -0.93530237       0.00000000
H        1.08131392       0.54864720      -0.90343076       0.00000000
Si       1.02227896      -0.79979014       1.96530811       0.00000000
Si      -1.29176443       1.94199608       0.40315822       0.00000000
H        1.93075598       1.74496853       0.76500683       0.00000000
Si      -0.09744678       2.47112786      -1.65917601       0.00000000
H        2.68104080       1.80664247       0.64037237       0.00000000
Si      -3.04764726       0.78126841       1.50713902       0.00000000
Si      -0.61015825       1.01120176      -3.40908614       0.00000000
Si      -2.43750530      -0.36274572      -2.66166161       0.00000000
