10
Lattice="16.2900001489832 0.0 0.0 0.0 16.2900001489832 0.0 0.0 0.0 29.40185373716267" Properties=species:S:1:pos:R:3:initial_magmoms:R:1 pbc="T T T"
Si      -2.12347971      -0.70952725       0.74139714       0.00000000
Si       1.74860445      -1.12024702       1.13094230       0.00000000
Si      -0.00462310      -0.96001858      -2.16100685       0.00000000
Si       0.46470809       2.33401493       0.28225780       0.00000000
H       -2.84089132       1.94435813      -0.25758964       0.00000000
Si       3.32708918      -0.65249596      -0.77897271       0.00000000
Si      -1.72220814      -0.39658005       3.03238959       0.00000000
Si      -1.16271179      -2.96416101      -1.76131805       0.00000000
Si      -0.45948878       3.25102791      -1.80597946       0.00000000
Si       0.05758189       1.09990081       3.62933542       0.00000000
