10
Lattice="16.2900001489832 0.0 0.0 0.0 16.2900001489832 0.0 0.0 0.0 29.40185373716267" Properties=species:S:1:pos:R:3:initial_magmoms:R:1 pbc="T T T"
Si       1.35058762       1.34923555      -1.36404020       0.00000000
Si      -1.34931700       1.29327940       1.44277836       0.00000000
Si       1.31282740      -1.24238944       1.52248679       0.00000000
Si      -1.39028635      -1.46347732      -1.28039193       0.00000000
Si      -2.22995441      -0.56166292       2.68212530       0.00000000
Si      -0.37510983      -2.26510823       2.85318529       0.00000000
Si       0.13401783       2.68120208       2.67477484       0.00000000
Si      -0.06532290       2.65167156      -2.72711014       0.00000000
Si       2.76110616       2.65625557       0.02287464       0.00000000
Si       2.70982523      -2.69931818       0.23577347       0.00000000
