10
Lattice="10.86 0.0 0.0 0.0 10.86 0.0 0.0 0.0 10.86" Properties=species:S:1:pos:R:3:initial_magmoms:R:1 pbc="T T T"
Si      -1.47636270       1.00708038      -1.37022792       0.00000000
Si       1.23863730      -1.70791962      -1.37022792       0.00000000
Si       1.48124970       1.91062152       0.80278206       0.00000000
Si      -1.47636270      -1.70791962       1.34477208       0.00000000
Si      -0.03982362       2.41077882      -2.41826136       0.00000000
Si      -0.18772596       2.25440568       2.59179330       0.00000000
Si       2.35681548       0.06801618       2.55625938       0.00000000
Si      -2.83386270       2.36458038      -0.01272792       0.00000000
Si      -2.83386270      -0.35041962       2.70227208       0.00000000
Si       2.67573024      -0.51494862      -2.83950990       0.00000000
