10
Lattice="10.86 0.0 0.0 0.0 10.86 0.0 0.0 0.0 10.86" Properties=species:S:1:pos:R:3:initial_magmoms:R:1 pbc="T T T"
Si       1.25378700      -1.07023128      -1.33096902       0.00000000
Si      -1.46121300      -1.07023128       1.38403098       0.00000000
Si       1.25378700       1.64476872       1.38403098       0.00000000
Si       2.61128700      -2.42773128       0.02653098       0.00000000
Si      -0.10371300      -2.42773128      -2.68846902       0.00000000
Si      -0.10371300      -2.42773128       2.74153098       0.00000000
Si      -2.81871300      -2.42773128       0.02653098       0.00000000
Si       2.61128700       0.28726872      -2.68846902       0.00000000
Si       2.61128700       0.28726872       2.74153098       0.00000000
Si      -0.17355366       2.89859916      -2.48907942       0.00000000
