10
Lattice="10.86 0.0 0.0 0.0 10.86 0.0 0.0 0.0 10.86" Properties=species:S:1:pos:R:3:initial_magmoms:R:1 pbc="T T T"
Si      -0.78555810      -1.64098944       1.29981168       0.00000000
Si      -1.13814972       1.20938046      -1.53881856       0.00000000
Si       1.57685028       1.20938046       1.17618144       0.00000000
Si       1.57685028      -1.50561954      -1.53881856       0.00000000
Si      -2.48397522      -0.22713690       2.44416246       0.00000000
Si      -2.49564972       2.56688046      -0.18131856       0.00000000
Si       0.21935028       2.56688046       2.53368144       0.00000000
Si      -2.41661064      -2.81692110       0.12814800       0.00000000
Si      -2.49564972      -0.14811954      -2.89631856       0.00000000
Si       2.78102880       0.10004232       2.68527618       0.00000000
