10
Lattice="10.86 0.0 0.0 0.0 10.86 0.0 0.0 0.0 10.86" Properties=species:S:1:pos:R:3:initial_magmoms:R:1 pbc="T T T"
Si      -1.66897566       0.34378416       1.78901124       0.00000000
Si      -1.48124970      -1.91062152      -0.80278206       0.00000000
Si       0.10997922       1.67608896      -2.04937974       0.00000000
Si       0.87556578      -1.84260534       1.75347732       0.00000000
Si      -2.95761240       1.81145886       0.54199002       0.00000000
Si      -1.58843790       3.08994150      -0.90502896       0.00000000
Si      -1.52107332       0.50015730      -3.22104342       0.00000000
Si      -0.24261240       1.81145886       3.25699002       0.00000000
Si      -2.95761240      -0.90354114      -2.17300998       0.00000000
Si       1.26085686       3.37762290       1.84538550       0.00000000
