10
Lattice="10.86 0.0 0.0 0.0 10.86 0.0 0.0 0.0 10.86" Properties=species:S:1:pos:R:3:initial_magmoms:R:1 pbc="T T T"
Si       1.07408658      -1.25436258      -1.42515780       0.00000000
Si       1.21473444       1.45122180       1.39406562       0.00000000
Si      -1.50026556      -1.26377820       1.39406562       0.00000000
Si      -1.50026556       1.45122180      -1.32093438       0.00000000
Si       2.54711526      -2.67289578       0.15384276       0.00000000
Si       2.57223444       0.09372180       2.75156562       0.00000000
Si      -0.14276556      -2.62127820       2.75156562       0.00000000
Si      -2.85776556      -2.62127820       0.03656562       0.00000000
Si      -2.85776556       0.09372180      -2.67843438       0.00000000
Si      -0.17597544      -2.75991696      -2.79791610       0.00000000
