10
Lattice="10.86 0.0 0.0 0.0 10.86 0.0 0.0 0.0 10.86" Properties=species:S:1:pos:R:3:initial_magmoms:R:1 pbc="T T T"
Si      -1.25170188       1.40185224      -1.20619848       0.00000000
Si      -1.25170188      -1.31314776       1.50880152       0.00000000
Si       1.70742006      -1.59017550      -0.93985698       0.00000000
Si       1.46329812       1.40185224       1.50880152       0.00000000
Si       0.13893198      -2.49069756      -2.64018546       0.00000000
Si      -2.60920188       0.04435224      -2.56369848       0.00000000
Si      -2.60920188      -2.67064776       0.15130152       0.00000000
Si       2.93856396      -0.26298576      -2.32500654       0.00000000
Si       0.10579812       2.75935224      -2.56369848       0.00000000
Si      -2.60920188       2.75935224       0.15130152       0.00000000
