10
Lattice="10.86 0.0 0.0 0.0 10.86 0.0 0.0 0.0 10.86" Properties=species:S:1:pos:R:3:initial_magmoms:R:1 pbc="T T T"
Si      -1.42247538       1.24580490      -1.17352074       0.00000000
Si       1.29252462       1.24580490       1.54147926       0.00000000
Si      -1.42247538      -1.46919510       1.54147926       0.00000000
Si      -0.06497538       2.60330490      -2.53102074       0.00000000
Si       2.65002462       2.60330490       0.18397926       0.00000000
Si      -2.77997538       2.60330490       0.18397926       0.00000000
Si      -0.06497538       2.60330490       2.89897926       0.00000000
Si       2.65002462      -0.11169510       2.89897926       0.00000000
Si      -2.63720982      -2.92041690       0.14741364       0.00000000
Si      -2.88577350      -0.15604734      -2.68232226       0.00000000
