10
Lattice="10.86 0.0 0.0 0.0 10.86 0.0 0.0 0.0 10.86" Properties=species:S:1:pos:R:3:initial_magmoms:R:1 pbc="T T T"
Si       1.17304290       1.52036742       1.19378550       0.00000000
Si       1.17304290      -1.19463258      -1.52121450       0.00000000
Si      -1.54195710      -1.19463258       1.19378550       0.00000000
Si       2.53054290       0.16286742       2.55128550       0.00000000
Si       2.53054290      -2.55213258      -0.16371450       0.00000000
Si      -0.18445710      -2.55213258       2.55128550       0.00000000
Si      -0.10548318      -2.39478204      -2.94098574       0.00000000
Si       2.53054290       2.87786742      -0.16371450       0.00000000
Si       2.53054290       0.16286742      -2.87871450       0.00000000
Si      -0.18445710       2.87786742       2.55128550       0.00000000
