10
Lattice="16.28999089631971 0.0 0.0 0.0 16.28999089631971 0.0 0.0 0.0 34.56954931742767" Properties=species:S:1:pos:R:3:initial_magmoms:R:1 pbc="T T T"
Si       1.50887754       1.95145308       0.44172995       0.00000000
Si      -1.82053782       1.09706634       1.39851190       0.00000000
Si       1.22007213      -1.73289762       1.59787460       0.00000000
Si      -0.57000665       0.08032599      -2.65328353       0.00000000
Si       1.92762828      -2.46497022      -1.06156231       0.00000000
Si       2.24964900       2.38417575      -1.74323964       0.00000000
Si       2.08955088      -0.13825323       3.21058097       0.00000000
Si      -3.85790273      -0.52924581      -0.84398145       0.00000000
Si       1.29041235       1.27825188      -3.55741603       0.00000000
Si      -0.64936175       2.43134344       3.17483604       0.00000000
