10
Lattice="16.28999089631971 0.0 0.0 0.0 16.28999089631971 0.0 0.0 0.0 34.56954931742767" Properties=species:S:1:pos:R:3:initial_magmoms:R:1 pbc="T T T"
Si       1.34112312       1.35192339       1.37106366       0.00000000
Si      -1.35814617       1.35571896      -1.35944829       0.00000000
Si       1.35643572      -1.35755158      -1.36027796       0.00000000
Si      -1.36172997      -1.34816529       1.37638738       0.00000000
Si      -0.23741046       2.56404600       2.84410755       0.00000000
Si       2.71221984       2.71616202       0.00145192       0.00000000
Si       2.71345788      -2.71550489       0.00051854       0.00000000
Si      -0.00114030       2.71443528      -2.71654584       0.00000000
Si       2.71407690      -0.00120546      -2.71702982       0.00000000
Si      -2.71821456      -2.71368172       0.00038027       0.00000000
