10
Lattice="16.28999089631971 0.0 0.0 0.0 16.28999089631971 0.0 0.0 0.0 34.56954931742767" Properties=species:S:1:pos:R:3:initial_magmoms:R:1 pbc="T T T"
Si      -1.35514881       1.35571963      -1.36072736       0.00000000
Si       1.36036161      -1.36017754      -1.36013968       0.00000000
Si      -1.35962856      -1.35711502       1.37562684       0.00000000
Si       1.35648459       1.36551643       1.37600711       0.00000000
Si      -2.71018359       2.71281835      -0.00186676       0.00000000
Si      -2.70972747      -2.71799791      -0.00017285       0.00000000
Si      -2.71226871      -0.00201456      -2.71754836       0.00000000
Si       0.00223173       2.71276948      -2.71765207       0.00000000
Si       2.71821456       2.71368172      -0.00038027       0.00000000
Si       0.10453293      -2.66147161       2.76750139       0.00000000
