10
Lattice="16.28999089631971 0.0 0.0 0.0 16.28999089631971 0.0 0.0 0.0 34.56954931742767" Properties=species:S:1:pos:R:3:initial_magmoms:R:1 pbc="T T T"
Si       1.24058124       1.49591722      -1.35481596       0.00000000
Si      -1.46632806      -1.35962923      -1.29158822       0.00000000
Si       0.26155224       0.40539946       2.36227690       0.00000000
Si       1.34671059      -1.61370436       1.64250391       0.00000000
Si       1.98241155       2.21117854       2.15454837       0.00000000
Si      -0.05593986      -2.62562287      -2.78243544       0.00000000
Si       2.66017329       0.09700858      -2.78205518       0.00000000
Si       1.84215465       3.41652451       0.06001277       0.00000000
Si      -2.75840688       0.07943330      -2.77351649       0.00000000
Si       2.96064234      -2.58053215       0.23891029       0.00000000
