10
Lattice="16.28999089631971 0.0 0.0 0.0 16.28999089631971 0.0 0.0 0.0 34.56954931742767" Properties=species:S:1:pos:R:3:initial_magmoms:R:1 pbc="T T T"
Si       1.33419987       1.35452979       1.36712273       0.00000000
Si       1.35503478      -1.35709872      -1.35886060       0.00000000
Si      -1.36122335       1.35654975      -1.35782352       0.00000000
Si      -1.35191199      -1.36487720       1.38641255       0.00000000
Si       2.71018359      -2.71281835       0.00186676       0.00000000
Si       2.71241532      -0.00004887      -2.71578531       0.00000000
Si       2.71124244       2.71839375       0.00134821       0.00000000
Si      -0.00208512      -2.71483291      -2.71568160       0.00000000
Si      -0.00241092       2.71495656      -2.71561246       0.00000000
Si      -2.71735156      -0.00003258      -2.71547419       0.00000000
