10
Lattice="16.28999089631971 0.0 0.0 0.0 16.28999089631971 0.0 0.0 0.0 34.56954931742767" Properties=species:S:1:pos:R:3:initial_magmoms:R:1 pbc="T T T"
Si       0.91106712      -0.04580748       2.20004424       0.00000000
Si      -1.77969879       1.68836076      -0.01044001       0.00000000
Si       1.59899382       1.55461986      -1.08541532       0.00000000
Si       0.61048404      -2.03723717      -1.31412758       0.00000000
Si       0.09466119       3.12416136      -0.01164994       0.00000000
Si      -1.55418003      -2.74651748      -1.05070747       0.00000000
Si      -0.42350742      -3.20107364       0.97942502       0.00000000
Si       2.98357866      -1.88632499       0.00867696       0.00000000
Si       0.69247161       1.14720696      -3.44167711       0.00000000
Si       3.66591789       0.41140395      -0.58585048       0.00000000
