10
Lattice="16.28999089631971 0.0 0.0 0.0 16.28999089631971 0.0 0.0 0.0 34.56954931742767" Properties=species:S:1:pos:R:3:initial_magmoms:R:1 pbc="T T T"
Si      -2.16466407      -0.70928030       0.26342011       0.00000000
Si       1.06699500      -0.95710007      -1.85832173       0.00000000
Si      -0.61048404       2.03723717       1.31412758       0.00000000
Si       2.37309462       0.15091219       1.32280454       0.00000000
Si      -1.03399146      -1.16383646       2.29355260       0.00000000
Si       1.41584535      -3.20415896      -1.18559793       0.00000000
Si       0.98850978       3.59185703       0.22871227       0.00000000
Si       3.37681926      -0.41666303      -1.68250091       0.00000000
Si       0.08198757       3.18444413      -2.12754953       0.00000000
Si      -2.58509268      -2.77343507      -0.66498022       0.00000000
