10
Lattice="16.28999089631971 0.0 0.0 0.0 16.28999089631971 0.0 0.0 0.0 34.56954931742767" Properties=species:S:1:pos:R:3:initial_magmoms:R:1 pbc="T T T"
Si       1.31528718      -1.23903369       1.62491492       0.00000000
Si      -1.65705138      -1.22924340      -1.41875726       0.00000000
Si       1.94476536       0.73296855      -1.41578428       0.00000000
Si      -1.37455020       1.47777993       1.61862326       0.00000000
Si       0.85660965      -1.16642916      -3.25256917       0.00000000
Si       2.51616969       2.67107130       0.14961364       0.00000000
Si       2.74255182      -2.57808798       0.21214999       0.00000000
Si      -2.80290627      -2.60503164       0.25728747       0.00000000
Si      -2.68060095       2.91519324       0.20826437       0.00000000
Si      -0.03717378      -2.58729183       3.01103708       0.00000000
