10
Lattice="16.28999089631971 0.0 0.0 0.0 16.28999089631971 0.0 0.0 0.0 34.56954931742767" Properties=species:S:1:pos:R:3:initial_magmoms:R:1 pbc="T T T"
Si       1.15619904       1.61925858       1.29594399       0.00000000
Si      -1.12562271       1.50891012      -1.46886097       0.00000000
Si      -1.94233815      -0.59269536       1.37434777       0.00000000
Si       1.57853358      -1.21212261      -1.47304389       0.00000000
Si      -1.22961807       1.96328709       2.13868093       0.00000000
Si       2.13760638      -0.10849140       2.52534156       0.00000000
Si      -2.54391156      -2.51330265      -0.04048096       0.00000000
Si       0.63408825      -2.10908259       2.95234487       0.00000000
Si      -2.47974525       0.15348438      -2.84424583       0.00000000
Si      -2.47498857       2.85439896       0.04131063       0.00000000
