10
Lattice="16.28999089631971 0.0 0.0 0.0 16.28999089631971 0.0 0.0 0.0 34.56954931742767" Properties=species:S:1:pos:R:3:initial_magmoms:R:1 pbc="T T T"
Si      -0.45831915       1.99203894      -1.15593724       0.00000000
Si      -1.87435998      -1.43580060       0.00120993       0.00000000
Si       1.50433263      -1.56954150      -1.07376537       0.00000000
Si       1.08815571       1.89939771       1.83678489       0.00000000
Si      -2.51366103      -0.06281424       1.83381191       0.00000000
Si      -0.09466119      -3.12416136       0.01164994       0.00000000
Si      -0.85660965       1.16642916       3.25256917       0.00000000
Si       1.33141428       3.40146603      -0.79468524       0.00000000
Si      -0.17804970       1.64331891      -3.41979458       0.00000000
Si       3.18218634       0.09873369       2.13764385       0.00000000
