10
Lattice="16.28999089631971 0.0 0.0 0.0 16.28999089631971 0.0 0.0 0.0 34.56954931742767" Properties=species:S:1:pos:R:3:initial_magmoms:R:1 pbc="T T T"
Si       1.78973343       1.40942709       0.36125199       0.00000000
Si       0.28026945      -0.34872003      -2.26385734       0.00000000
Si       0.45831915      -1.99203894       1.15593724       0.00000000
Si      -2.24707518       0.92183481      -0.04231315       0.00000000
Si       1.54647486      -0.09264123       2.99272213       0.00000000
Si       0.57464604       3.34503747       0.85663391       0.00000000
Si      -0.67694724       1.51568676      -3.30723606       0.00000000
Si       2.53495206      -0.44002548      -2.76418271       0.00000000
Si      -2.80394883       0.95410530      -2.40434807       0.00000000
Si       3.02357061       1.62829953      -1.72011260       0.00000000
