10
Lattice="16.28999089631971 0.0 0.0 0.0 16.28999089631971 0.0 0.0 0.0 34.56954931742767" Properties=species:S:1:pos:R:3:initial_magmoms:R:1 pbc="T T T"
Si       1.29370293      -1.73467323       0.92290377       0.00000000
Si      -2.32573959      -0.39974031       0.02851989       0.00000000
Si       0.21362706      -0.73412514      -2.24615772       0.00000000
Si       0.60724233       2.17883637       0.80816738       0.00000000
Si       0.32391036      -3.64878081      -0.02692969       0.00000000
Si      -3.12407991       0.77542029      -1.79796326       0.00000000
Si       0.94351680      -1.61132535       3.25825098       0.00000000
Si       2.96833122       2.49942357       0.52269188       0.00000000
Si       0.18730242      -3.12934158      -2.35978789       0.00000000
Si       3.61510938      -1.50646662       0.33176415       0.00000000
