10
Lattice="16.28999089631971 0.0 0.0 0.0 16.28999089631971 0.0 0.0 0.0 34.56954931742767" Properties=species:S:1:pos:R:3:initial_magmoms:R:1 pbc="T T T"
Si      -0.16070085       0.14385699       2.35079981       0.00000000
Si      -1.14228738       2.08458243      -0.02447525       0.00000000
Si      -0.89448390      -2.01598524      -0.95913268       0.00000000
Si       2.32852518       0.08612523      -0.60358467       0.00000000
Si       0.83062710       2.34514098       2.62652669       0.00000000
Si       0.33293502      -3.72659814       0.13969563       0.00000000
Si      -2.07650259       2.37086289      -2.11213150       0.00000000
Si       3.37807359      -1.69520256       0.54142858       0.00000000
Si       0.28406502       3.73024710       0.77912894       0.00000000
Si       0.79651584      -1.72054980       3.39417853       0.00000000
