10
Lattice="16.28999089631971 0.0 0.0 0.0 16.28999089631971 0.0 0.0 0.0 34.56954931742767" Properties=species:S:1:pos:R:3:initial_magmoms:R:1 pbc="T T T"
Si      -0.03893310       1.18350108       2.01139578       0.00000000
Si       2.32572330      -0.31227930      -0.24070791       0.00000000
Si      -0.54656208       1.38510612      -1.84739775       0.00000000
Si      -0.99132795      -2.20128399      -0.27572688       0.00000000
Si      -1.97291448      -0.26055855      -2.65100194       0.00000000
Si       2.07560664       2.21542371       1.69937086       0.00000000
Si      -0.83062710      -2.34514098      -2.62652669       0.00000000
Si       2.70918990      -2.08867122       1.31139659       0.00000000
Si       2.64582180      -0.31198608      -2.54117442       0.00000000
Si       1.28738241       1.56323727      -3.30391738       0.00000000
