10
Lattice="16.28999089631971 0.0 0.0 0.0 16.28999089631971 0.0 0.0 0.0 34.56954931742767" Properties=species:S:1:pos:R:3:initial_magmoms:R:1 pbc="T T T"
Si       1.35609363       1.35814617      -1.35675186       0.00000000
Si      -1.35720135      -1.35762489      -1.35689014       0.00000000
Si      -1.35697329       1.35742941       1.35768524       0.00000000
Si       1.35835794      -1.35759231       1.35771981       0.00000000
Si      -0.00135207       2.71445157      -2.71056531       0.00000000
Si       0.00102627       2.71440270       2.71471366       0.00000000
Si      -2.71448415       2.71467963       0.00010371       0.00000000
Si      -2.71461447      -2.71467963       0.00006914       0.00000000
Si      -2.71466334      -0.00050499       2.71509392       0.00000000
Si       2.71523349       2.71490769      -0.00027656       0.00000000
