10
Lattice="16.28999089631971 0.0 0.0 0.0 16.28999089631971 0.0 0.0 0.0 34.56954931742767" Properties=species:S:1:pos:R:3:initial_magmoms:R:1 pbc="T T T"
Si       0.32742900      -2.25818496       0.49258178       0.00000000
Si       1.01693583       1.43518158      -1.60309461       0.00000000
Si      -2.14048971      -0.53584326      -0.95138910       0.00000000
Si       0.43758198       1.69578900       1.65709227       0.00000000
Si       0.73308258       3.29377677      -0.13008529       0.00000000
Si      -0.91105083       1.61215614      -3.20639663       0.00000000
Si      -1.53443655       1.90487115       2.85468584       0.00000000
Si       0.66486006      -2.15617698      -3.05508563       0.00000000
Si      -1.65027474      -3.09413889       1.53561481       0.00000000
Si      -1.68842592      -1.99899477      -2.80587361       0.00000000
