10
Lattice="16.28999089631971 0.0 0.0 0.0 16.28999089631971 0.0 0.0 0.0 34.56954931742767" Properties=species:S:1:pos:R:3:initial_magmoms:R:1 pbc="T T T"
Si       0.91131147      -0.73394595       2.02190493       0.00000000
Si       1.48880826       0.25381449      -1.79485200       0.00000000
Si      -1.67433507      -1.14528474      -1.19413661       0.00000000
Si      -1.41082803       1.77455931       0.68586024       0.00000000
Si      -1.93235238       0.80868447      -2.57463776       0.00000000
Si       1.33174008       1.33020882       2.95030527       0.00000000
Si      -1.73581353       2.83158060      -1.37147850       0.00000000
Si       2.29008078      -1.99498743      -2.04548138       0.00000000
Si      -3.27124703       0.57663342       1.58999274       0.00000000
Si      -3.44682228      -1.42509807       0.29760942       0.00000000
