10
Lattice="16.28999089631971 0.0 0.0 0.0 16.28999089631971 0.0 0.0 0.0 34.56954931742767" Properties=species:S:1:pos:R:3:initial_magmoms:R:1 pbc="T T T"
Si       1.33665966       1.34965908       1.37133330       0.00000000
Si      -1.30929246       1.35959598      -1.42924770       0.00000000
Si      -1.37466423      -1.36548319       1.36832575       0.00000000
Si       1.43094618      -1.23688178      -1.48697888       0.00000000
Si      -0.56972646      -2.05538586      -2.58243009       0.00000000
Si      -2.37882870      -0.39871404      -2.68227267       0.00000000
Si       2.71008585       2.71199178      -0.00552422       0.00000000
Si       2.69793351      -0.00663003       2.72905311       0.00000000
Si       2.70184311      -2.72525903      -0.02871348       0.00000000
Si      -2.73655710       2.69865027      -0.01648277       0.00000000
