10
Lattice="16.28999089631971 0.0 0.0 0.0 16.28999089631971 0.0 0.0 0.0 34.56954931742767" Properties=species:S:1:pos:R:3:initial_magmoms:R:1 pbc="T T T"
Si       0.95923665       1.10592386       1.81417639       0.00000000
Si      -0.32498550       1.05702128      -2.05733874       0.00000000
Si       1.41082803      -1.77455931      -0.68586024       0.00000000
Si      -1.86041900      -1.19792589       0.90413250       0.00000000
Si      -0.52152435      -0.96587484      -3.26049801       0.00000000
Si      -0.26350704      -2.91984405      -1.87999685       0.00000000
Si       2.74256811      -0.44435049       2.26444502       0.00000000
Si       2.32213950      -2.50850526       1.33604469       0.00000000
Si      -2.03599425      -3.19965738      -0.38825083       0.00000000
Si       1.05511959       3.40713397       1.34755636       0.00000000
