10
Lattice="16.28999089631971 0.0 0.0 0.0 16.28999089631971 0.0 0.0 0.0 34.56954931742767" Properties=species:S:1:pos:R:3:initial_magmoms:R:1 pbc="T T T"
Si      -2.06055468       0.31603577       1.35263808       0.00000000
Si       1.55331666       1.90763882      -0.40477508       0.00000000
Si       0.56003391      -2.00584539      -1.40756913       0.00000000
Si       1.83190824      -0.17973572       1.73497751       0.00000000
Si      -2.08604853       0.66049271      -1.70116847       0.00000000
Si       0.52740504      -3.26644704       0.74058387       0.00000000
Si      -0.56019681       1.73348243      -3.03344508       0.00000000
Si      -2.88596898       2.13258743       0.01099312       0.00000000
Si       3.31850106       0.64250855      -1.54467204       0.00000000
Si       2.20815837      -0.95497323      -2.92175080       0.00000000
