10
Lattice="16.28999089631971 0.0 0.0 0.0 16.28999089631971 0.0 0.0 0.0 34.56954931742767" Properties=species:S:1:pos:R:3:initial_magmoms:R:1 pbc="T T T"
Si       1.52585172       1.07298972      -1.33227661       0.00000000
Si      -0.79992045       1.47209472       1.71216160       0.00000000
Si      -1.15572663      -1.66730593      -1.29072398       0.00000000
Si       2.08604853      -0.66049271       1.70116847       0.00000000
Si       0.02549385      -0.34445694       3.05380655       0.00000000
Si       0.14452488       2.36905470      -2.71322716       0.00000000
Si      -1.29013542      -2.29552883       2.61252601       0.00000000
Si       2.52672561       2.74830219      -0.06855145       0.00000000
Si      -2.55832821      -0.33103398      -2.70790345       0.00000000
Si       2.64608244      -2.66633810       0.29359935       0.00000000
