10
Lattice="16.28999089631971 0.0 0.0 0.0 16.28999089631971 0.0 0.0 0.0 34.56954931742767" Properties=species:S:1:pos:R:3:initial_magmoms:R:1 pbc="T T T"
Si       1.37697741      -0.77750541      -1.77746351       0.00000000
Si       1.21476159       1.63046610       1.27862464       0.00000000
Si      -2.06692407       1.14321591      -0.49956484       0.00000000
Si      -0.68233923      -2.29772894       0.59452744       0.00000000
Si       1.13860584       1.24730901      -2.94868050       0.00000000
Si      -1.01208141       2.09337903      -2.48669278       0.00000000
Si       2.52011187      -0.03166776       2.47794668       0.00000000
Si      -0.94574853      -2.11388325       2.88573730       0.00000000
Si      -3.66591789      -0.41140395       0.58585048       0.00000000
Si       0.32138541      -2.86530416      -2.41077801       0.00000000
