10
Lattice="16.28999089631971 0.0 0.0 0.0 16.28999089631971 0.0 0.0 0.0 34.56954931742767" Properties=species:S:1:pos:R:3:initial_magmoms:R:1 pbc="T T T"
Si      -0.98140734       1.72774998      -1.22939757       0.00000000
Si       1.82312793      -0.72438372      -1.35370974       0.00000000
Si       0.18151947      -0.14983542       2.44787116       0.00000000
Si      -1.50351813      -2.00059119       0.42700331       0.00000000
Si       0.30395511       2.00756331       1.68561217       0.00000000
Si      -2.13760638       0.10849140      -2.52534156       0.00000000
Si       0.82225404      -2.39969619      -2.61743489       0.00000000
Si       2.93576751      -2.22553980       0.01123511       0.00000000
Si      -0.70359768      -3.47268591      -1.28515828       0.00000000
Si       0.70289721       2.89996209      -2.53930766       0.00000000
