10
Lattice="16.28999089631971 0.0 0.0 0.0 16.28999089631971 0.0 0.0 0.0 34.56954931742767" Properties=species:S:1:pos:R:3:initial_magmoms:R:1 pbc="T T T"
Si       2.29952898       0.28499355      -0.27973695       0.00000000
Si      -0.80615952      -1.96400385      -0.98827483       0.00000000
Si      -1.04954841       1.78132779      -1.14501325       0.00000000
Si      -0.32687514      -0.11665269       2.35242458       0.00000000
Si      -3.04513857      -2.03139558      -0.40173296       0.00000000
Si       0.09837531       3.72835746      -0.45607632       0.00000000
Si      -3.37807359       1.69520256      -0.54142858       0.00000000
Si       3.34112787      -1.76912658      -0.66798777       0.00000000
Si      -2.58155775      -0.02534724       2.85274994       0.00000000
Si       3.37056390       0.64361790       1.81130712       0.00000000
