10
Lattice="16.28999089631971 0.0 0.0 0.0 16.28999089631971 0.0 0.0 0.0 34.56954931742767" Properties=species:S:1:pos:R:3:initial_magmoms:R:1 pbc="T T T"
Si      -1.35698958       1.35695700      -1.35765067       0.00000000
Si      -1.35821133      -1.35697329       1.35661358       0.00000000
Si       1.35703845      -1.35765747      -1.35740868       0.00000000
Si       1.35920502       1.35830907       1.35723583       0.00000000
Si       0.00198738       2.71406061      -2.71443710       0.00000000
Si       2.71396287      -0.00047241      -2.71460995       0.00000000
Si      -2.71466334       2.71466334       0.00024199       0.00000000
Si      -2.71458189       0.00226431       2.71474823       0.00000000
Si       2.71484253       2.71476108      -0.00020742       0.00000000
Si       2.71324611       0.00162900       2.71644213       0.00000000
