10
Lattice="16.28999089631971 0.0 0.0 0.0 16.28999089631971 0.0 0.0 0.0 34.56954931742767" Properties=species:S:1:pos:R:3:initial_magmoms:R:1 pbc="T T T"
Si       0.32009850       0.00029322      -2.30046651       0.00000000
Si      -2.32572330       0.31227930       0.24070791       0.00000000
Si       0.38346660      -1.77639192       1.55210449       0.00000000
Si       1.54064304       1.75399317       0.60109566       0.00000000
Si      -0.25011666       2.52770301       1.94007876       0.00000000
Si      -2.36465640       1.49578038       2.25210369       0.00000000
Si       2.70418887      -1.70961921       1.68924197       0.00000000
Si      -0.82782522      -1.94673645      -2.98940345       0.00000000
Si       3.44649159       0.45962235       1.21536232       0.00000000
Si      -2.87228538       1.69738542      -1.60668984       0.00000000
