10
Lattice="16.28999089631971 0.0 0.0 0.0 16.28999089631971 0.0 0.0 0.0 34.56954931742767" Properties=species:S:1:pos:R:3:initial_magmoms:R:1 pbc="T T T"
Si       1.46049624       1.07478162      -1.46011487       0.00000000
Si      -1.32162399       1.59356925       1.08303002       0.00000000
Si      -1.65279969      -1.18348479      -1.28878809       0.00000000
Si       1.59047415      -1.43135343       1.26144325       0.00000000
Si       3.32386047      -0.19777689      -0.84816437       0.00000000
Si      -0.10956654      -2.68306074       2.41269804       0.00000000
Si      -0.43771230      -3.11909517      -1.78417001       0.00000000
Si      -2.68087788       0.30154419       2.49506350       0.00000000
Si      -1.95199812       0.37194957      -3.16553540       0.00000000
Si       0.16254162       1.40387220      -3.47756033       0.00000000
