10
Lattice="16.28999089631971 0.0 0.0 0.0 16.28999089631971 0.0 0.0 0.0 34.56954931742767" Properties=species:S:1:pos:R:3:initial_magmoms:R:1 pbc="T T T"
Si      -1.35744570       1.35630540      -1.35381345       0.00000000
Si      -1.35609363      -1.35814617       1.35675186       0.00000000
Si       1.35913986       1.35676152       1.35647530       0.00000000
Si       1.36115982      -1.35883035      -1.36338922       0.00000000
Si      -0.01645290       2.71362974      -2.70044334       0.00000000
Si      -2.71249677       2.71288177      -0.00006914       0.00000000
Si      -2.71306692      -0.00071676       2.71443710       0.00000000
Si       0.00213399       2.71419256       2.71384942       0.00000000
Si      -2.71329498      -2.71577106      -0.00013828       0.00000000
Si       0.00226431      -2.71573848       2.71447167       0.00000000
