10
Lattice="16.28999089631971 0.0 0.0 0.0 16.28999089631971 0.0 0.0 0.0 34.56954931742767" Properties=species:S:1:pos:R:3:initial_magmoms:R:1 pbc="T T T"
Si       1.11034269       1.59748178       1.37707877       0.00000000
Si      -1.41543810       1.27435008      -1.48618033       0.00000000
Si       1.29624417      -1.44243488      -1.47760707       0.00000000
Si      -1.64812446      -1.05087215       1.51418168       0.00000000
Si      -2.20815837       0.95497323       2.92175080       0.00000000
Si      -2.67266772      -2.70916157      -0.01247961       0.00000000
Si      -2.76835518       2.68845566      -0.11169428       0.00000000
Si      -0.65484171       2.86261205       2.51697572       0.00000000
Si       2.74783322       2.75237762      -0.03916732       0.00000000
Si      -0.06374277       2.63267870      -2.86433075       0.00000000
