10
Lattice="16.28999089631971 0.0 0.0 0.0 16.28999089631971 0.0 0.0 0.0 34.56954931742767" Properties=species:S:1:pos:R:3:initial_magmoms:R:1 pbc="T T T"
Si      -1.11263958       1.50115608      -1.36494485       0.00000000
Si       1.34617302       1.79610282       0.70618715       0.00000000
Si       1.76518440      -1.26513027      -1.13989696       0.00000000
Si      -1.55331666      -1.90763882       0.40477508       0.00000000
Si       0.27859158      -2.08737454       2.13975259       0.00000000
Si       0.47671056      -0.03347595       3.22575559       0.00000000
Si      -2.11351347      -0.17415639      -2.62867000       0.00000000
Si       2.36752344      -2.27916485       0.95999692       0.00000000
Si      -2.93576751       2.22553980      -0.01123511       0.00000000
Si       0.60937632       2.59027290      -2.55379231       0.00000000
