10
Lattice="16.28999089631971 0.0 0.0 0.0 16.28999089631971 0.0 0.0 0.0 34.56954931742767" Properties=species:S:1:pos:R:3:initial_magmoms:R:1 pbc="T T T"
Si      -0.19264554      -1.53726775       1.72073485       0.00000000
Si      -2.07374958       0.10326231      -1.07642723       0.00000000
Si       1.37759547      -1.02221379      -1.68094527       0.00000000
Si       0.59321664       2.31997293       0.25460487       0.00000000
Si      -0.44678583       0.18178011       3.28500783       0.00000000
Si       0.37427904       2.61451242      -2.06985292       0.00000000
Si       1.93434695       1.05683004      -2.84120371       0.00000000
Si      -2.27186856      -1.95063628      -2.16243023       0.00000000
Si       1.89350792      -2.58064877       1.89358269       0.00000000
Si      -2.00743299       1.93507281       2.66355069       0.00000000
