10
Lattice="16.28999089631971 0.0 0.0 0.0 16.28999089631971 0.0 0.0 0.0 34.56954931742767" Properties=species:S:1:pos:R:3:initial_magmoms:R:1 pbc="T T T"
Si       0.25414029      -1.71904786      -1.56427298       0.00000000
Si      -1.13191065      -1.02363102       1.79799783       0.00000000
Si       1.92181342       0.69836859       1.27388860       0.00000000
Si      -1.56064716       1.75329270      -0.62145714       0.00000000
Si       0.44678583      -0.18178011      -3.28500783       0.00000000
Si      -1.65879441       2.40238404       1.60668984       0.00000000
Si       0.68110119       2.56772754       2.04582707       0.00000000
Si       0.54960831      -2.56300018       2.39784899       0.00000000
Si      -2.59455717      -2.36703800       0.64572497       0.00000000
Si      -1.45666809      -3.34427903      -1.12987178       0.00000000
