10
Lattice="16.28999089631971 0.0 0.0 0.0 16.28999089631971 0.0 0.0 0.0 34.56954931742767" Properties=species:S:1:pos:R:3:initial_magmoms:R:1 pbc="T T T"
Si       1.35654975       1.35728280      -1.35699385       0.00000000
Si      -1.35739683      -1.35663120      -1.35706299       0.00000000
Si       1.35746881      -1.35754344       1.35740868       0.00000000
Si      -1.35764118       1.35767376       1.35723583       0.00000000
Si       2.71359702      -0.00096111       2.71505935       0.00000000
Si      -2.71482624      -0.00120546       2.71419511       0.00000000
Si       0.00057015       2.71428867       2.71481736       0.00000000
Si       2.71474220       2.71454931      -0.00003457       0.00000000
Si      -0.00136836      -2.71541757       2.71426425       0.00000000
Si       2.71474709      -2.71497448      -0.00020742       0.00000000
