10
Lattice="16.28999089631971 0.0 0.0 0.0 16.28999089631971 0.0 0.0 0.0 34.56954931742767" Properties=species:S:1:pos:R:3:initial_magmoms:R:1 pbc="T T T"
Si      -1.35612821      -1.35658233      -1.35765067       0.00000000
Si       1.35881243       1.35840681      -1.35778895       0.00000000
Si       1.36122335      -1.35654975       1.35782352       0.00000000
Si      -1.35785962       1.35971001       1.35823835       0.00000000
Si       2.69542322      -0.00201996       2.72494625       0.00000000
Si      -2.71302687       2.71524978      -0.00024199       0.00000000
Si      -2.71359702       0.00096111      -2.71505935       0.00000000
Si       0.00115007      -2.71401337      -2.71526677       0.00000000
Si      -2.71496538      -2.71445646      -0.00079510       0.00000000
Si       2.71418930       2.71547784      -0.00131364       0.00000000
