10
Lattice="16.28999089631971 0.0 0.0 0.0 16.28999089631971 0.0 0.0 0.0 34.56954931742767" Properties=species:S:1:pos:R:3:initial_magmoms:R:1 pbc="T T T"
Si       1.35516725      -1.35553977       1.35848034       0.00000000
Si       1.35642288       1.35809730      -1.35751239       0.00000000
Si      -1.35821133      -1.35661491      -1.35758153       0.00000000
Si      -1.35995436       1.36016613       1.35899888       0.00000000
Si       2.71377783       2.71342530      -0.00076053       0.00000000
Si       2.71302687      -2.71524978       0.00024199       0.00000000
Si       2.71417205       0.00026064      -2.71485193       0.00000000
Si      -0.00057015      -2.71428867      -2.71481736       0.00000000
Si      -2.71399545       2.71684620      -0.00020742       0.00000000
Si      -2.71539639      -2.71549413      -0.00062225       0.00000000
