10
Lattice="16.28999089631971 0.0 0.0 0.0 16.28999089631971 0.0 0.0 0.0 34.56954931742767" Properties=species:S:1:pos:R:3:initial_magmoms:R:1 pbc="T T T"
Si       1.36033118       1.35452979      -1.37856526       0.00000000
Si      -1.35511623      -1.36078515      -1.37811585       0.00000000
Si       1.45645976      -1.24108623       1.44704757       0.00000000
Si      -1.33683885       1.45942110       1.44939830       0.00000000
Si      -0.18103077      -2.39598207       2.86329366       0.00000000
Si       2.22314584       0.46973844       3.01273791       0.00000000
Si       0.49692645       2.39402727       2.93132657       0.00000000
Si      -2.70681156      -2.71911377       0.00003457       0.00000000
Si       2.71927897       2.70909216      -0.00297298       0.00000000
Si      -2.71156824       2.71987614      -0.00508173       0.00000000
