10
Lattice="16.28999089631971 0.0 0.0 0.0 16.28999089631971 0.0 0.0 0.0 34.56954931742767" Properties=species:S:1:pos:R:3:initial_magmoms:R:1 pbc="T T T"
Si      -0.21893760       0.29453949      -2.32445780       0.00000000
Si       2.32118558       0.39099258       0.32025248       0.00000000
Si      -1.66342077       1.36739889       1.05644602       0.00000000
Si      -0.59321664      -2.31997293      -0.25460487       0.00000000
Si      -2.60064963      -0.38490012       2.40894582       0.00000000
Si       1.34113031      -1.26314289      -3.09580858       0.00000000
Si       3.11740820      -0.07089408      -1.90022005       0.00000000
Si      -2.66696622      -2.21671062      -1.33103210       0.00000000
Si      -1.04000247      -2.13819282       3.03040296       0.00000000
Si       2.56623605       2.69612532       1.00936227       0.00000000
