10
Lattice="16.28999089631971 0.0 0.0 0.0 16.28999089631971 0.0 0.0 0.0 34.56954931742767" Properties=species:S:1:pos:R:3:initial_magmoms:R:1 pbc="T T T"
Si      -0.37509354       2.36079567       0.17830984       0.00000000
Si      -0.02324583      -0.29318742      -2.38706328       0.00000000
Si       2.23076889       0.73423917       0.61443951       0.00000000
Si      -1.52653590      -1.65926682       1.56662371       0.00000000
Si       1.92063987       2.83665915      -0.57644756       0.00000000
Si       2.42464353      -0.59611626       2.73407261       0.00000000
Si      -1.60269165      -2.04242391      -2.66068142       0.00000000
Si      -1.42658046       3.11013567      -1.87671274       0.00000000
Si       2.02753485      -0.85442679      -3.33416576       0.00000000
Si      -1.06616421       2.70014895       2.75685396       0.00000000
