10
Lattice="16.28999089631971 0.0 0.0 0.0 16.28999089631971 0.0 0.0 0.0 34.56954931742767" Properties=species:S:1:pos:R:3:initial_magmoms:R:1 pbc="T T T"
Si      -1.34325711       1.31015583      -1.32815937       0.00000000
Si       1.35062019       1.36583505       1.33957424       0.00000000
Si      -1.36721970      -1.34591238       1.34555478       0.00000000
Si       1.21068909      -1.31646006      -1.54008811       0.00000000
Si       0.47925180       2.17012122      -2.74680601       0.00000000
Si      -2.54086533      -0.26756325      -2.67106439       0.00000000
Si      -0.65407608      -2.07964656      -3.02733806       0.00000000
Si       2.31836022       0.49902786      -2.95443084       0.00000000
Si      -0.00856854      -2.70567126       2.70085472       0.00000000
Si       2.70796995       0.00946449       2.70064730       0.00000000
