10
Lattice="16.28999089631971 0.0 0.0 0.0 16.28999089631971 0.0 0.0 0.0 34.56954931742767" Properties=species:S:1:pos:R:3:initial_magmoms:R:1 pbc="T T T"
Si      -1.35563751      -1.35645201       1.35744325       0.00000000
Si      -1.35726651       1.35692442      -1.35737411       0.00000000
Si       1.35725022      -1.35723393      -1.35761610       0.00000000
Si       1.35799956       1.35868374       1.35695928       0.00000000
Si      -2.71285515      -0.00070047      -2.71422968       0.00000000
Si      -2.71484253      -2.71476108       0.00020742       0.00000000
Si      -0.00087966      -2.71523349      -2.71440253       0.00000000
Si      -2.71487511       2.71479366       0.00020742       0.00000000
Si       2.71514586       2.71461447       0.00006914       0.00000000
Si      -0.00159642      -2.71313208       2.71664955       0.00000000
