10
Lattice="16.28999089631971 0.0 0.0 0.0 16.28999089631971 0.0 0.0 0.0 34.56954931742767" Properties=species:S:1:pos:R:3:initial_magmoms:R:1 pbc="T T T"
Si       2.09883618      -0.60183405      -0.85597709       0.00000000
Si      -0.35792388       2.02981545       1.18300521       0.00000000
Si      -1.19915577       0.04619844      -2.05332867       0.00000000
Si      -0.52167096      -1.55499453       1.73843447       0.00000000
Si      -2.72282463       1.88836938       1.56209510       0.00000000
Si      -0.58872060       2.28959208      -2.79927082       0.00000000
Si       1.55530404      -2.50590699      -2.23046314       0.00000000
Si       3.35792286      -1.21536432       1.04002547       0.00000000
Si       2.42882271      -0.01361844       2.92493120       0.00000000
Si      -3.52056222      -0.18200817      -1.46218904       0.00000000
