10
Lattice="16.28999089631971 0.0 0.0 0.0 16.28999089631971 0.0 0.0 0.0 34.56954931742767" Properties=species:S:1:pos:R:3:initial_magmoms:R:1 pbc="T T T"
Si      -2.32072227      -0.06677271      -0.13713748       0.00000000
Si       0.74230272       2.16924156      -0.47387965       0.00000000
Si       0.88809822      -1.37482713      -1.72232505       0.00000000
Si       1.05148692      -0.74934000       2.05502258       0.00000000
Si       3.34722033      -0.27347652       1.30026519       0.00000000
Si      -2.70418887       1.70961921      -1.68924197       0.00000000
Si       1.68865398       1.94232186      -2.62943053       0.00000000
Si       1.40333463      -3.40332309      -0.51035054       0.00000000
Si      -2.80934082      -2.13509772      -1.18120759       0.00000000
Si      -1.16354583       3.46361238      -1.08814631       0.00000000
