10
Lattice="16.28999089631971 0.0 0.0 0.0 16.28999089631971 0.0 0.0 0.0 34.56954931742767" Properties=species:S:1:pos:R:3:initial_magmoms:R:1 pbc="T T T"
Si       1.55615179      -0.14489955       1.71350981       0.00000000
Si      -1.07890299       2.13439725      -0.00255815       0.00000000
Si      -1.87945875      -1.18275174       0.90454733       0.00000000
Si       0.92910015      -1.20174588      -1.88490573       0.00000000
Si      -2.95049367      -1.54137609      -1.18649673       0.00000000
Si       0.43100082      -3.43015272      -1.13561033       0.00000000
Si       2.39941667      -2.30900976       1.72616227       0.00000000
Si      -2.02525425       2.36131695       2.15299273       0.00000000
Si      -2.42882271       0.01361844      -2.92493120       0.00000000
Si      -2.76755697       0.19207539       2.62687238       0.00000000
