10
Lattice="16.28999089631971 0.0 0.0 0.0 16.28999089631971 0.0 0.0 0.0 34.56954931742767" Properties=species:S:1:pos:R:3:initial_magmoms:R:1 pbc="T T T"
Si       1.86476517       0.76318650       1.48724995       0.00000000
Si      -0.64495368      -1.85049513       1.62545217       0.00000000
Si      -1.88678925       1.81208331       0.35627367       0.00000000
Si       0.69107067      -0.33935328      -2.57854412       0.00000000
Si      -0.15340293       3.04565985      -1.75333395       0.00000000
Si      -2.08717254      -0.61665795       3.00626791       0.00000000
Si       0.65407608       2.07964656       3.02733806       0.00000000
Si      -2.06420364      -3.17839077       0.24298950       0.00000000
Si      -0.68918103       3.38980239       1.69917869       0.00000000
Si      -3.58682994       0.56037600       1.50752846       0.00000000
