10
Lattice="16.28999089631971 0.0 0.0 0.0 16.28999089631971 0.0 0.0 0.0 34.56954931742767" Properties=species:S:1:pos:R:3:initial_magmoms:R:1 pbc="T T T"
Si      -2.32118558      -0.39099258      -0.32025248       0.00000000
Si       0.79622262      -0.46188666      -2.22047253       0.00000000
Si       0.24505047       2.30513274       0.68910978       0.00000000
Si       1.33918461      -1.60612884       1.22784194       0.00000000
Si       2.51631630       2.62562220      -0.01272160       0.00000000
Si      -2.54012318      -0.09645309      -2.64471028       0.00000000
Si       3.54283065      -1.10628648       0.27807761       0.00000000
Si       3.14115183      -0.74767842      -2.05640536       0.00000000
Si       0.89834463      -1.29397986       3.56820174       0.00000000
Si      -0.98005527      -1.65413547      -3.41606106       0.00000000
