10
Lattice="16.28999089631971 0.0 0.0 0.0 16.28999089631971 0.0 0.0 0.0 34.56954931742767" Properties=species:S:1:pos:R:3:initial_magmoms:R:1 pbc="T T T"
Si       1.34092764       1.35167904      -1.37808128       0.00000000
Si      -1.37471310      -1.36047564      -1.37324154       0.00000000
Si      -1.26843714       1.44159984       1.47363157       0.00000000
Si       1.25204940      -1.50915447       1.44583764       0.00000000
Si      -2.14917228      -0.43903179       2.83180078       0.00000000
Si      -0.47778570      -2.42963721       2.80303890       0.00000000
Si       2.70047475       2.70832653       0.00850411       0.00000000
Si       2.68934868      -2.72323188      -0.00753617       0.00000000
Si      -2.72280834       2.70414000      -0.00307669       0.00000000
Si       2.70040959      -0.00371412      -2.73784070       0.00000000
