10
Lattice="16.28999089631971 0.0 0.0 0.0 16.28999089631971 0.0 0.0 0.0 34.56954931742767" Properties=species:S:1:pos:R:3:initial_magmoms:R:1 pbc="T T T"
Si       1.41464219      -1.21326291      -1.47069316       0.00000000
Si       1.61326616       1.14598521       1.37227360       0.00000000
Si      -1.28601405       1.49444460      -1.44165472       0.00000000
Si      -1.28946753      -1.59479100       1.44604506       0.00000000
Si       2.74355270      -2.62684395      -0.14792318       0.00000000
Si       0.07301178      -2.57592141      -2.82789442       0.00000000
Si       0.57067032       1.68627564       3.39753178       0.00000000
Si      -2.73443940      -2.72303640      -0.00432120       0.00000000
Si      -2.64556116       0.13779711      -2.82824012       0.00000000
Si       2.72869622       2.76467364       0.03909818       0.00000000
