10
Lattice="16.28999089631971 0.0 0.0 0.0 16.28999089631971 0.0 0.0 0.0 34.56954931742767" Properties=species:S:1:pos:R:3:initial_magmoms:R:1 pbc="T T T"
Si      -2.04858153      -0.61682085       0.88238824       0.00000000
Si       1.84893129      -0.32768964       1.42557987       0.00000000
Si       0.14248863      -1.55836656      -1.78603676       0.00000000
Si      -0.73811619       2.19287835      -0.65018445       0.00000000
Si       0.87887808       0.11699478      -3.35898671       0.00000000
Si       2.71037322       1.84989240       1.26452025       0.00000000
Si       2.87823027      -2.06335656       0.22822829       0.00000000
Si      -3.30610437      -0.68924619      -1.12620741       0.00000000
Si      -2.66346387       1.47962070      -1.92538669       0.00000000
Si      -2.70505224       1.25032266       2.15689910       0.00000000
