10
Lattice="16.28999089631971 0.0 0.0 0.0 16.28999089631971 0.0 0.0 0.0 34.56954931742767" Properties=species:S:1:pos:R:3:initial_magmoms:R:1 pbc="T T T"
Si      -1.71285833      -1.46347731      -0.55674290       0.00000000
Si      -0.84326488       2.16411021      -0.01265246       0.00000000
Si       2.09503409      -0.20443950      -1.02754586       0.00000000
Si       0.48864461      -0.58792239       2.22178618       0.00000000
Si       2.97477554       1.76011821       0.07933716       0.00000000
Si       0.55484717      -2.90434410       1.89721250       0.00000000
Si       1.23391211       3.32047215      -0.17900123       0.00000000
Si      -1.81975331       2.22760863       2.20097530       0.00000000
Si      -1.96841585      -1.12114296      -2.86177260       0.00000000
Si      -1.50962429       0.12518865       3.39186237       0.00000000
