10
Lattice="16.28999089631971 0.0 0.0 0.0 16.28999089631971 0.0 0.0 0.0 34.56954931742767" Properties=species:S:1:pos:R:3:initial_magmoms:R:1 pbc="T T T"
Si       0.06620256      -2.31642171      -0.32457368       0.00000000
Si      -0.48864461       0.58792239      -2.22178618       0.00000000
Si      -1.99826891       0.71311104       1.17007619       0.00000000
Si       1.74863376       0.84813885       1.65069690       0.00000000
Si      -0.87705523      -2.52297891       2.02508533       0.00000000
Si       2.41210917      -2.61729801      -0.53810991       0.00000000
Si      -2.30839793       2.81553102      -0.02081088       0.00000000
Si       1.60638948       0.38348289      -3.24933203       0.00000000
Si      -2.20150295      -0.87555492      -2.77852908       0.00000000
Si      -1.33190950       2.75203260      -2.23443864       0.00000000
