10
Lattice="16.28999089631971 0.0 0.0 0.0 16.28999089631971 0.0 0.0 0.0 34.56954931742767" Properties=species:S:1:pos:R:3:initial_magmoms:R:1 pbc="T T T"
Si      -1.35428268       1.35407367       1.36114220       0.00000000
Si       1.35979960      -1.36086660       1.36124590       0.00000000
Si       1.35556421       1.35280305      -1.38256496       0.00000000
Si      -1.36126329      -1.36252818      -1.39523125       0.00000000
Si      -2.71163244       2.71044423       0.00006914       0.00000000
Si       2.71654484       2.71125873      -0.00096795       0.00000000
Si       0.00287356       2.71169856       2.71837803       0.00000000
Si      -2.71269129      -0.00306252       2.71813604       0.00000000
Si      -2.71184421      -2.71938744       0.00203960       0.00000000
Si       2.71722902      -2.71834488      -0.00245444       0.00000000
