10
Lattice="16.28999089631971 0.0 0.0 0.0 16.28999089631971 0.0 0.0 0.0 34.56954931742767" Properties=species:S:1:pos:R:3:initial_magmoms:R:1 pbc="T T T"
Si       1.35127179      -1.35462753      -1.35848034       0.00000000
Si       1.35244467       1.35153243       1.36560167       0.00000000
Si      -1.36216654       1.35856971      -1.35816921       0.00000000
Si      -1.36182934      -1.35583299       1.37666393       0.00000000
Si      -0.04667085       2.66787846       2.68197627       0.00000000
Si       2.70954828      -2.70826137       0.00200503       0.00000000
Si       2.71059084       0.00299736      -2.71488650       0.00000000
Si      -0.00410508      -2.71169856      -2.71495564       0.00000000
Si       2.71226871       2.71515204       0.00231616       0.00000000
Si      -2.72077713      -2.71039536       0.00107166       0.00000000
