10
Lattice="16.28999089631971 0.0 0.0 0.0 16.28999089631971 0.0 0.0 0.0 34.56954931742767" Properties=species:S:1:pos:R:3:initial_magmoms:R:1 pbc="T T T"
Si      -1.26527199      -1.44624249       1.37735675       0.00000000
Si       1.00406673      -1.32111900      -1.76239118       0.00000000
Si       1.46662128       1.31426091       1.46558174       0.00000000
Si       2.49017085      -2.83017573      -0.16143989       0.00000000
Si      -2.54896130      -2.78650224      -0.12337879       0.00000000
Si      -2.74283594      -1.45614681      -2.24301189       0.00000000
Si       0.03212388       2.59760340       2.88368076       0.00000000
Si       2.27967147       3.15234306       0.24219928       0.00000000
Si      -2.68470362      -0.11772783       2.87101447       0.00000000
Si       2.29843755       0.14651226      -3.19350218       0.00000000
