10
Lattice="16.28999089631971 0.0 0.0 0.0 16.28999089631971 0.0 0.0 0.0 34.56954931742767" Properties=species:S:1:pos:R:3:initial_magmoms:R:1 pbc="T T T"
Si      -1.35771774       1.35267273      -1.35785809       0.00000000
Si       1.35728280       1.35549090       1.35758153       0.00000000
Si      -1.35754507      -1.35915615       1.35737411       0.00000000
Si       1.35612621      -1.35959598      -1.36197187       0.00000000
Si       2.71536381       2.71183921       0.00065682       0.00000000
Si      -2.71362011       2.71385189      -0.00024199       0.00000000
Si       0.00016290       2.71337695       2.71478279       0.00000000
Si      -0.00105885       2.70253720      -2.72574480       0.00000000
Si       2.70992295       0.01396053      -2.71859582       0.00000000
Si       2.71479366      -0.00175932       2.71516306       0.00000000
