10
Lattice="16.28999089631971 0.0 0.0 0.0 16.28999089631971 0.0 0.0 0.0 34.56954931742767" Properties=species:S:1:pos:R:3:initial_magmoms:R:1 pbc="T T T"
Si      -0.49526487       2.30545921      -0.24336976       0.00000000
Si       0.95180841      -0.94350051      -1.97886582       0.00000000
Si      -2.21924534      -0.38512818       1.10225070       0.00000000
Si       1.92798666      -0.17697456       1.60330202       0.00000000
Si      -1.22943888      -2.14799940       2.25500753       0.00000000
Si      -0.29921472       2.78804069       2.13760928       0.00000000
Si       0.91105083      -1.61215614       3.20639663       0.00000000
Si      -0.77737509      -3.61115091       0.40052302       0.00000000
Si       2.77775451      -2.27400255      -1.17764693       0.00000000
Si      -2.25671886       1.41964485       2.68643575       0.00000000
