10
Lattice="10.86 0.0 0.0 0.0 10.86 0.0 0.0 0.0 10.86" Properties=species:S:1:pos:R:3:initial_magmoms:R:1 pbc="T T T"
Si      -1.09138656       0.97004778       1.57658964       0.00000000
Si       1.62361344       0.97004778      -1.13841036       0.00000000
Si      -1.09138656      -1.74495222      -1.13841036       0.00000000
Si      -2.44888656       2.32754778       0.21908964       0.00000000
Si       0.26611344       2.32754778      -2.49591036       0.00000000
Si      -2.44888656      -0.38745222      -2.49591036       0.00000000
Si       0.26611344       2.32754778       2.93408964       0.00000000
Si       2.98111344       2.32754778       0.21908964       0.00000000
Si      -2.44888656      -0.38745222       2.93408964       0.00000000
Si       2.98111344      -0.38745222      -2.49591036       0.00000000
