10
Lattice="16.290000149 0.0 0.0 0.0 16.290000149 0.0 0.0 0.0 29.1751946751" Properties=species:S:1:pos:R:3:initial_magmoms:R:1 pbc="T T T"
Si       1.35576784       1.36647037       1.33882051       0.00000000
Si      -1.32847232       1.36075258      -1.37403497       0.00000000
Si       1.38401470      -1.35550069      -1.33400660       0.00000000
Si      -1.34604760      -1.35452329       1.37680661       0.00000000
Si       2.71546157       0.00047241       2.67343979       0.00000000
Si      -2.69850368      -0.00863370      -2.69902643       0.00000000
Si       0.06077799      -2.69529455       2.70605766       0.00000000
Si       0.02718801      -2.71841006      -2.68414709       0.00000000
Si      -2.69316056       2.71466336      -0.02617015       0.00000000
Si      -0.02357163       2.71344161       2.69488356       0.00000000
