10
Lattice="16.290000149 0.0 0.0 0.0 16.290000149 0.0 0.0 0.0 29.1751946751" Properties=species:S:1:pos:R:3:initial_magmoms:R:1 pbc="T T T"
Si       0.33182730      -0.87302998      -2.14271382       0.00000000
Si      -1.82275328       1.45546264       0.16492738       0.00000000
Si       1.60863751       1.70158826       0.04335434       0.00000000
Si       0.21559815      -1.51425325       1.83695778       0.00000000
H       -0.90324793      -1.46518777       2.85558053       0.00000000
Si       1.03534354       2.74929591       2.03794570       0.00000000
Si       2.27232470      -0.80506810       2.72685957       0.00000000
Si       1.39070989       0.88760953      -3.32640982       0.00000000
Si      -3.63737784       0.15043815       0.81147886       0.00000000
H       -1.78207715       0.33518304       3.29145794       0.00000000
