10
Lattice="16.290000149 0.0 0.0 0.0 16.290000149 0.0 0.0 0.0 29.1751946751" Properties=species:S:1:pos:R:3:initial_magmoms:R:1 pbc="T T T"
Si       1.67731616      -1.67928725      -0.25008977       0.00000000
Si      -1.86023657      -0.84240478      -1.25310379       0.00000000
Si      -0.62988544       0.33335856       2.32920167       0.00000000
Si       0.69649525       1.85792339      -1.42112373       0.00000000
H        2.22356873       0.78685588       1.12517056       0.00000000
H       -1.06134238       2.49378725       0.10406792       0.00000000
H       -2.61988814      -0.28054638       1.24312587       0.00000000
H        0.59548096      -1.61982874       2.55425912       0.00000000
H       -0.48728277       2.36931536      -2.22309148       0.00000000
H       -3.26821386       0.14608872       1.20470214       0.00000000
