10
Lattice="16.290000149 0.0 0.0 0.0 16.290000149 0.0 0.0 0.0 29.1751946751" Properties=species:S:1:pos:R:3:initial_magmoms:R:1 pbc="T T T"
Si       1.37960011       1.31755150      -1.36361942       0.00000000
Si      -1.37373571      -1.32675535      -1.36332767       0.00000000
Si       1.35643573      -1.36956547       1.33908309       0.00000000
Si      -1.36884871       1.37968156       1.32189890       0.00000000
Si      -0.05391990       2.63689490      -2.64624851       0.00000000
Si       0.04429251      -2.65772981      -2.66605846       0.00000000
Si       2.72709263      -0.00842193       2.66690455       0.00000000
Si      -2.72875421       0.01687644       2.66541661       0.00000000
Si      -0.01405827       2.73289187       2.68251327       0.00000000
Si       0.00076563      -2.72531702       2.69666324       0.00000000
