10
Lattice="16.290000149 0.0 0.0 0.0 16.290000149 0.0 0.0 0.0 29.1751946751" Properties=species:S:1:pos:R:3:initial_magmoms:R:1 pbc="T T T"
Si      -1.36836001      -1.34915410      -1.33838288       0.00000000
Si      -1.36443412       1.34845363       1.34999461       0.00000000
Si       1.32576166      -1.38276037       1.36020593       0.00000000
Si       1.38489045       1.33191928      -1.36717880       0.00000000
Si       0.07338645      -2.68186671      -2.62139124       0.00000000
Si       2.69579303      -0.01337409       2.68519739       0.00000000
Si      -0.00630423       2.71490771       2.68102534       0.00000000
Si      -2.69449634       2.71432127      -0.02541159       0.00000000
Si       0.05426199       2.73976626      -2.67854545       0.00000000
Si      -2.71924085      -0.02911023       2.70632023       0.00000000
