10
Lattice="16.290000149 0.0 0.0 0.0 16.290000149 0.0 0.0 0.0 29.1751946751" Properties=species:S:1:pos:R:3:initial_magmoms:R:1 pbc="T T T"
Si      -1.34538134      -1.34798122       1.36895848       0.00000000
Si       1.35192340      -1.37021707      -1.35717171       0.00000000
Si      -1.36684993       1.34702011      -1.37257621       0.00000000
Si       1.33160977       1.34509789       1.41470519       0.00000000
Si      -2.64613752       2.69301395       0.08440384       0.00000000
Si       0.04535136       2.73834902      -2.62733423       0.00000000
Si       2.70423776       0.02780703      -2.67746305       0.00000000
Si      -2.70993926      -2.67729410      -0.01047389       0.00000000
Si       2.71836119       2.70462872       0.11057399       0.00000000
Si       0.00592956      -2.70708851       2.72840586       0.00000000
