10
Lattice="16.290000149 0.0 0.0 0.0 16.290000149 0.0 0.0 0.0 29.1751946751" Properties=species:S:1:pos:R:3:initial_magmoms:R:1 pbc="T T T"
Si       1.26867140      -1.35506737      -1.43273546       0.00000000
Si       1.35053680       1.42371343       1.30556079       0.00000000
Si      -1.30741945      -1.34781832       1.44490152       0.00000000
Si      -1.39258357       1.35956341      -1.35369986       0.00000000
Si       2.64204222      -2.69078222      -0.07705169       0.00000000
Si      -0.08405673       2.66877443       2.67510277       0.00000000
Si      -2.73846338      -2.61112412       0.03673157       0.00000000
Si       2.60266929       0.01899414      -2.79793034       0.00000000
Si      -0.04355979       2.71178003      -2.75089993       0.00000000
Si       2.77649988       0.20685042       2.68738553       0.00000000
