10
Lattice="16.290000149 0.0 0.0 0.0 16.290000149 0.0 0.0 0.0 29.1751946751" Properties=species:S:1:pos:R:3:initial_magmoms:R:1 pbc="T T T"
Si      -0.51517940      -0.90701092      -2.09460393       0.00000000
Si       2.05729670       1.00613557       0.72584967       0.00000000
Si      -1.41248474       1.95092300       0.00312175       0.00000000
Si      -0.68092364      -1.76363687       1.50675293       0.00000000
H        1.45476217       1.57247371      -2.37284776       0.00000000
Si      -1.94281058      -0.33492240       2.83342284       0.00000000
H        2.85912309      -0.45418149      -1.91911513       0.00000000
Si       0.26041194       1.21090087      -3.26657150       0.00000000
Si       1.05153580       2.24832953       2.56843826       0.00000000
Si      -3.08286624       1.16616853       1.44965707       0.00000000
