10
Lattice="16.290000149 0.0 0.0 0.0 16.290000149 0.0 0.0 0.0 29.1751946751" Properties=species:S:1:pos:R:3:initial_magmoms:R:1 pbc="T T T"
Si      -1.32639697       1.35940051       1.36650777       0.00000000
Si       1.37821546      -1.33975477       1.35807614       0.00000000
Si       1.41084433       1.40403511      -1.25784184       0.00000000
Si      -1.41964093      -1.42905655      -1.23601587       0.00000000
Si       0.07833861      -2.66492022      -2.51563408       0.00000000
Si       2.66809025       0.00294849      -2.62309216       0.00000000
Si      -2.66955635      -0.05895351      -2.64922729       0.00000000
Si      -2.64414395       2.75002896       0.02526572       0.00000000
Si       0.05207913       2.72372060       2.67104742       0.00000000
Si       0.09547569       2.66721059      -2.73043061       0.00000000
