10
Lattice="16.290000149 0.0 0.0 0.0 16.290000149 0.0 0.0 0.0 29.1751946751" Properties=species:S:1:pos:R:3:initial_magmoms:R:1 pbc="T T T"
Si       1.32064660       1.34094394       1.39420378       0.00000000
Si      -1.35944124       1.33895656      -1.38038933       0.00000000
Si       1.41814225      -1.38235312      -1.28432416       0.00000000
Si      -1.37418043      -1.36096435       1.36108993       0.00000000
Si       0.03059262      -2.65680128      -2.66263038       0.00000000
Si       2.67659363       2.65522115      -0.00469721       0.00000000
Si       0.12872358       2.53807976      -2.81431805       0.00000000
Si       2.62169633      -2.77814550       0.15788157       0.00000000
Si      -2.86562280      -0.04517217      -2.54933347       0.00000000
Si       2.67393836      -0.02555901       2.75044188       0.00000000
