10
Lattice="16.290000149 0.0 0.0 0.0 16.290000149 0.0 0.0 0.0 29.1751946751" Properties=species:S:1:pos:R:3:initial_magmoms:R:1 pbc="T T T"
Si       1.92187793      -1.05923282       0.77177142       0.00000000
Si      -1.23445621      -1.33349778      -1.47130507       0.00000000
Si       1.16480017       1.43489000      -1.50430221       0.00000000
Si      -1.00154179       0.41456584       2.14072991       0.00000000
H       -1.87137893       1.97912262       0.66528196       0.00000000
Si       0.05527197       2.54749701       2.54999954       0.00000000
Si      -2.53939925      -2.66911490      -0.10966956       0.00000000
Si       2.60594390       2.76158019      -0.29201452       0.00000000
Si       2.68762196       0.11746393      -2.69987252       0.00000000
Si       3.67352535      -0.74337135      -0.71525907       0.00000000
