10
Lattice="16.290000149 0.0 0.0 0.0 16.290000149 0.0 0.0 0.0 29.1751946751" Properties=species:S:1:pos:R:3:initial_magmoms:R:1 pbc="T T T"
Si       1.35535896      -1.24012513       1.46207870       0.00000000
Si      -1.17007650       1.59109563       1.28858082       0.00000000
Si       1.31911371       1.42835608      -1.34319679       0.00000000
Si      -1.45797293      -1.38300472      -1.35399161       0.00000000
Si      -0.52448099       2.60040693      -2.27429395       0.00000000
Si       2.80147115      -2.43455681       0.10803575       0.00000000
Si      -1.45650683       3.41666463      -0.28031527       0.00000000
Si       0.01683409      -2.59252094      -2.68554749       0.00000000
Si      -2.65175301       0.28238715       2.65629061       0.00000000
Si       0.01220447      -2.70405857       2.69495066       0.00000000
