10
Lattice="16.290000149 0.0 0.0 0.0 16.290000149 0.0 0.0 0.0 29.1751946751" Properties=species:S:1:pos:R:3:initial_magmoms:R:1 pbc="T T T"
Si      -1.33062846       1.40784697      -1.31136665       0.00000000
Si       1.33494499       1.37699371       1.34550163       0.00000000
Si      -1.38489045      -1.33191928       1.36717880       0.00000000
Si       1.34952779      -1.32758614      -1.40644861       0.00000000
Si      -2.72062160       0.06271650      -2.58712206       0.00000000
Si       2.64416415      -2.67981905       0.02552830       0.00000000
Si       2.67879669       0.01935252       2.70847920       0.00000000
Si       2.66579727       2.73412992      -0.03792775       0.00000000
Si      -0.05222183       2.73955449       2.66839248       0.00000000
Si      -2.75325047      -2.68107338       0.02879592       0.00000000
