10
Lattice="16.290000149 0.0 0.0 0.0 16.290000149 0.0 0.0 0.0 29.1751946751" Properties=species:S:1:pos:R:3:initial_magmoms:R:1 pbc="T T T"
H       -0.67807126       1.24207993      -0.52684567       0.00000000
Si       2.31298454       0.05691726      -0.36031365       0.00000000
Si      -0.73842571      -1.79160680      -1.33666154       0.00000000
Si      -0.73699219      -0.61794324       2.15493823       0.00000000
H        1.44314740       1.62147403      -1.83576160       0.00000000
Si       2.38777193      -2.01368837       0.92742109       0.00000000
Si      -2.24734561      -0.16008020      -2.56680445       0.00000000
Si      -2.09789464       2.74515825       0.21805540       0.00000000
Si       1.33797916      -1.34693052       3.00352794       0.00000000
H       -1.88037264      -1.84350674      -2.49083225       0.00000000
