10
Lattice="16.290000149 0.0 0.0 0.0 16.290000149 0.0 0.0 0.0 29.1751946751" Properties=species:S:1:pos:R:3:initial_magmoms:R:1 pbc="T T T"
Si      -1.36044307      -1.35391078      -1.35378738       0.00000000
Si      -1.36847404       1.35423658       1.35113244       0.00000000
Si       1.34908894      -1.36005211       1.36545746       0.00000000
Si       1.35495334       1.34425081      -1.37546455       0.00000000
Si       2.69035868       2.69562035       0.01817615       0.00000000
Si      -2.69129536      -2.71104698       0.02964200       0.00000000
Si       0.01811448      -2.71371854      -2.68919439       0.00000000
Si      -0.02248020       2.69110802      -2.73444512       0.00000000
Si       2.71510319      -0.00472410       2.71160094       0.00000000
Si      -0.02766042       2.71648784       2.71574382       0.00000000
