10
Lattice="16.290000149 0.0 0.0 0.0 16.290000149 0.0 0.0 0.0 29.1751946751" Properties=species:S:1:pos:R:3:initial_magmoms:R:1 pbc="T T T"
Si       1.29583693       1.24453972      -1.49937160       0.00000000
Si       1.44376642      -1.35215146       1.28490475       0.00000000
Si      -1.49765374       1.33201702       1.25602131       0.00000000
Si      -1.43967763      -1.40592475      -1.31577210       0.00000000
Si       2.50375673      -2.81354367      -0.19567803       0.00000000
Si      -2.81619731      -0.15288165       2.52403362       0.00000000
Si      -0.12794166       2.61674417      -2.75285467       0.00000000
Si       0.12722490      -2.70982523       2.66944279       0.00000000
Si       2.47875158      -0.20799072      -2.91180113       0.00000000
Si       3.15494949       2.17091945      -0.39383595       0.00000000
