10
Lattice="16.290000149 0.0 0.0 0.0 16.290000149 0.0 0.0 0.0 29.1751946751" Properties=species:S:1:pos:R:3:initial_magmoms:R:1 pbc="T T T"
Si      -0.71460973      -0.08692344      -1.32601260       0.00000000
H       -2.11273157       0.74407834       0.30683552       0.00000000
H        1.14404671       1.64450810      -1.12123191       0.00000000
H        1.79237243       1.21787299      -1.08280818       0.00000000
Si      -1.51876558       0.84471796       1.70899538       0.00000000
Si       0.25581816      -2.68718213       1.44341358       0.00000000
Si       2.24886710      -2.08555985       0.27410095       0.00000000
Si       0.89562421      -0.87254128      -2.84790745       0.00000000
Si       0.37535418       2.35076105       2.02388325       0.00000000
Si      -1.03840606      -1.18490203       2.76717969       0.00000000
