10
Lattice="16.290000149 0.0 0.0 0.0 16.290000149 0.0 0.0 0.0 29.1751946751" Properties=species:S:1:pos:R:3:initial_magmoms:R:1 pbc="T T T"
Si      -1.35641944      -1.34975683      -1.35442924       0.00000000
Si      -1.34325712       1.33038802       1.38757226       0.00000000
Si       1.34027605       1.35347095      -1.38512154       0.00000000
Si       1.34615674      -1.37904625       1.35515862       0.00000000
Si       0.06775011      -2.71075376      -2.62460051       0.00000000
Si      -2.70640433       2.66970296       0.02339851       0.00000000
Si       2.70483398       2.68278383      -0.00568916       0.00000000
Si       2.69399298      -0.03609864      -2.71448929       0.00000000
Si      -2.69443118      -0.06058251       2.71571465       0.00000000
Si       2.69765498      -0.02660157       2.71775691       0.00000000
