10
Lattice="16.290000149 0.0 0.0 0.0 16.290000149 0.0 0.0 0.0 29.1751946751" Properties=species:S:1:pos:R:3:initial_magmoms:R:1 pbc="T T T"
Si       1.30100086      -1.34869798       1.41823539       0.00000000
Si      -1.37717290       1.34961022       1.35016966       0.00000000
Si      -1.42941493      -1.40297626      -1.24239065       0.00000000
Si       1.42762303       1.38956959      -1.28132495       0.00000000
Si      -2.63296901      -0.00718389      -2.68459638       0.00000000
Si       2.71415837      -0.05848110      -2.61124119       0.00000000
Si       0.05159043       2.65276136      -2.69776023       0.00000000
Si      -0.11394855      -2.72625696      -2.64213772       0.00000000
Si       2.63094905      -2.76807828       0.13178435       0.00000000
Si      -0.02981070       2.70615998       2.71256372       0.00000000
