10
Lattice="16.290000149 0.0 0.0 0.0 16.290000149 0.0 0.0 0.0 29.1751946751" Properties=species:S:1:pos:R:3:initial_magmoms:R:1 pbc="T T T"
Si       0.84683566      -1.84743263       1.11644717       0.00000000
Si      -1.72265123       0.75901627       1.37426837       0.00000000
Si      -1.05339286      -0.08065179      -2.11050441       0.00000000
Si       1.79390369       1.59506794       0.12866261       0.00000000
H        2.31937022       1.85934062      -1.25791769       0.00000000
H       -1.15077448      -3.01834155      -1.06918336       0.00000000
Si      -0.36297378       2.10639476       2.71346816       0.00000000
H        1.68392990       0.90880282      -2.87868728       0.00000000
Si       2.56142333      -2.28607346      -0.41084509       0.00000000
Si      -0.56294983       2.12737628      -2.71020053       0.00000000
