10
Lattice="16.290000149 0.0 0.0 0.0 16.290000149 0.0 0.0 0.0 29.1751946751" Properties=species:S:1:pos:R:3:initial_magmoms:R:1 pbc="T T T"
Si       1.31536864      -1.26317548       1.47258878       0.00000000
Si      -0.85766851      -1.93591991      -1.04173242       0.00000000
Si      -1.43083216       1.37189494       1.28528111       0.00000000
Si       1.21606480       1.43472547      -1.44273088       0.00000000
Si       2.57261456      -2.66426210       0.10733846       0.00000000
Si       2.61066800       2.75657754      -0.07674827       0.00000000
Si      -0.05903496       2.77879710       2.59704162       0.00000000
Si      -0.09547569      -2.66721059       2.73043061       0.00000000
Si       2.75402001       0.16340499      -2.64092695       0.00000000
Si      -1.51151653      -1.51148395      -3.17328673       0.00000000
