10
Lattice="16.290000149 0.0 0.0 0.0 16.290000149 0.0 0.0 0.0 29.1751946751" Properties=species:S:1:pos:R:3:initial_magmoms:R:1 pbc="T T T"
Si       0.97694389      -1.85937320       0.89742899       0.00000000
Si      -1.48620187      -1.01491588      -1.46935033       0.00000000
Si      -1.61023393       0.78561784       1.52189486       0.00000000
Si       1.65639980       1.52855587      -0.73113038       0.00000000
H        0.89674822       2.09041427       1.76509928       0.00000000
H        0.24842250       2.51704937       1.72667555       0.00000000
H       -0.89562421       0.87254128       2.84790745       0.00000000
Si      -1.95095558       2.73369009       0.15004803       0.00000000
Si       0.17094726       3.32847057      -0.85139053       0.00000000
Si      -0.05536971      -2.23971212      -2.75828125       0.00000000
