10
Lattice="16.290000149 0.0 0.0 0.0 16.290000149 0.0 0.0 0.0 29.1751946751" Properties=species:S:1:pos:R:3:initial_magmoms:R:1 pbc="T T T"
Si       1.33349941       1.33270120      -1.39486606       0.00000000
Si      -1.19654938       1.47126394       1.43293969       0.00000000
Si       1.47188296      -1.20892978       1.45496696       0.00000000
Si      -1.56714688      -1.11811303      -1.46958373       0.00000000
H        1.82794979      -3.01892799      -0.79353612       0.00000000
Si      -0.17285319       2.63697635      -2.68896099       0.00000000
Si      -2.52486857       0.08995338       2.80760776       0.00000000
Si       2.92770399       2.46397655      -0.05858379       0.00000000
Si      -2.59859711       2.89448868       0.21417510       0.00000000
Si       3.00983817      -2.48025026       0.25677089       0.00000000
