10
Lattice="16.290000149 0.0 0.0 0.0 16.290000149 0.0 0.0 0.0 29.1751946751" Properties=species:S:1:pos:R:3:initial_magmoms:R:1 pbc="T T T"
Si      -1.14811921      -1.63836677       1.18652599       0.00000000
Si       1.47480702      -1.20951622      -1.33155589       0.00000000
Si      -1.77976397       1.14927580      -1.02626665       0.00000000
Si       1.45797293       1.38300472       1.35399161       0.00000000
H       -2.04398777      -0.88928740       2.16351574       0.00000000
Si      -3.40210137       1.32440959       0.64529696       0.00000000
Si       2.89976664      -2.39893058       0.12282757       0.00000000
Si       2.67219533       0.31025934      -2.64251408       0.00000000
Si      -0.93747322       3.07998454      -2.03575756       0.00000000
Si       0.25000915      -2.81030196       2.65042056       0.00000000
