10
Lattice="16.290000149 0.0 0.0 0.0 16.290000149 0.0 0.0 0.0 29.1751946751" Properties=species:S:1:pos:R:3:initial_magmoms:R:1 pbc="T T T"
Si       1.34553772       1.33089301      -1.37047559       0.00000000
Si      -1.43739703       1.36953289       1.23370228       0.00000000
Si       1.34052040      -1.34439742       1.38538412       0.00000000
Si      -1.38191329      -1.35138583      -1.34060020       0.00000000
Si      -0.15636771      -2.71259453       2.54410615       0.00000000
Si       2.70767495       2.63598266       0.02045181       0.00000000
Si      -0.01194057      -2.73887031      -2.65082901       0.00000000
Si      -2.80899876       0.04694778       2.59131162       0.00000000
Si       2.71862183      -0.02964780      -2.69006965       0.00000000
Si      -0.01286910       2.66349647      -2.74844921       0.00000000
