10
Lattice="16.290000149 0.0 0.0 0.0 16.290000149 0.0 0.0 0.0 29.1751946751" Properties=species:S:1:pos:R:3:initial_magmoms:R:1 pbc="T T T"
Si      -1.34788348      -1.31905018      -1.41210860       0.00000000
Si      -1.38831526       1.35480673       1.34941110       0.00000000
Si       1.34902378       1.35221662      -1.39720007       0.00000000
Si       1.39258357      -1.35956341       1.35369986       0.00000000
Si      -2.69474069      -2.66185118      -0.04032012       0.00000000
Si       2.66125497      -2.71463078      -0.07903560       0.00000000
Si       0.01834254       2.72158661       2.66804238       0.00000000
Si      -2.71963181       2.67151115      -0.09397330       0.00000000
Si       2.74312037       0.06415002       2.65926064       0.00000000
Si      -2.74657548      -0.02384856       2.70384034       0.00000000
