10
Lattice="16.28999089631971 0.0 0.0 0.0 16.28999089631971 0.0 0.0 0.0 34.474598006748145" Properties=species:S:1:pos:R:3:initial_magmoms:R:1 pbc="T T T"
Si       1.35954711       1.33773773       1.38294582       0.00000000
Si      -1.35193968      -1.37983567       1.37901572       0.00000000
Si       1.39952277      -1.23123829      -1.49376793       0.00000000
Si      -1.54509021       1.27367731      -1.46534705       0.00000000
Si      -0.38147922      -2.28482662      -2.71654955       0.00000000
Si      -2.72354139       2.68192011       0.02597662       0.00000000
Si       2.72069064       2.68814289       0.00614682       0.00000000
Si       0.00793323       2.69430051       2.74324527       0.00000000
Si       2.71235016      -2.72908750      -0.00041370       0.00000000
Si      -2.70910845      -0.01876927       2.74196971       0.00000000
