10
Lattice="16.28999089631971 0.0 0.0 0.0 16.28999089631971 0.0 0.0 0.0 34.474598006748145" Properties=species:S:1:pos:R:3:initial_magmoms:R:1 pbc="T T T"
Si      -1.38800085       1.23496021      -1.44831315       0.00000000
Si      -1.55811244      -1.12361254       1.36960760       0.00000000
Si       1.33467228      -1.46984020      -1.44083215       0.00000000
Si       0.86107311       1.97090820       1.22698610       0.00000000
Si      -0.02777445      -2.42901169       2.67350657       0.00000000
Si       1.95243795      -0.85867198       2.98888037       0.00000000
Si      -2.77305389       2.43790992       0.11752397       0.00000000
Si      -3.14690939       0.70792984       1.93288837       0.00000000
Si      -2.58942843      -2.74204033      -0.06653601       0.00000000
Si      -0.02324583       2.59111737      -2.81571437       0.00000000
