10
Lattice="16.28999089631971 0.0 0.0 0.0 16.28999089631971 0.0 0.0 0.0 34.474598006748145" Properties=species:S:1:pos:R:3:initial_magmoms:R:1 pbc="T T T"
Si      -1.35586557       1.35316593      -1.35388717       0.00000000
Si       1.35760860       1.35476235       1.35750700       0.00000000
Si      -1.35723393      -1.36043109       1.35778280       0.00000000
Si       1.35716877      -1.36106640      -1.36295399       0.00000000
Si      -0.01443294       2.70068939      -2.71599309       0.00000000
Si      -2.71368594       2.71064258       0.00041370       0.00000000
Si      -0.00060273       2.71279286       2.71532428       0.00000000
Si       2.71704168       2.71306979       0.00127556       0.00000000
Si       2.71572219      -0.00215210       2.71463479       0.00000000
Si      -2.71541268      -0.00222646       2.71542770       0.00000000
