10
Lattice="16.28999089631971 0.0 0.0 0.0 16.28999089631971 0.0 0.0 0.0 34.474598006748145" Properties=species:S:1:pos:R:3:initial_magmoms:R:1 pbc="T T T"
Si       0.14615388      -1.19338748       2.06809782       0.00000000
Si       2.31596559      -0.41052429      -0.72213981       0.00000000
Si       0.74484396       2.26157328      -0.66935917       0.00000000
Si      -1.82185731      -1.15054315      -1.22074620       0.00000000
Si       1.79100405       0.27065835       2.98432972       0.00000000
Si       3.45248631       0.37032057       1.39787678       0.00000000
Si      -3.17638710       1.58980626       1.56669898       0.00000000
Si       0.45274797       2.12320602      -3.34972619       0.00000000
Si      -1.19045691      -3.43323872      -1.71011339       0.00000000
Si       0.59579046      -3.54490667       1.80798683       0.00000000
