10
Lattice="16.28999089631971 0.0 0.0 0.0 16.28999089631971 0.0 0.0 0.0 34.474598006748145" Properties=species:S:1:pos:R:3:initial_magmoms:R:1 pbc="T T T"
Si      -1.45560924       1.22939001       1.39988665       0.00000000
Si       1.27532781      -1.48142889       1.39228845       0.00000000
Si       1.13601573       1.52593317      -1.54456770       0.00000000
Si      -0.99860958      -1.84901274      -1.26425041       0.00000000
Si       1.88561637      -0.06380793      -3.13050351       0.00000000
Si      -2.29829094      -0.62060013      -2.83753822       0.00000000
Si       2.67017535       2.61407259      -0.05941700       0.00000000
Si      -2.77480602       2.52828945      -0.10385478       0.00000000
Si      -0.09715356       2.58652620       2.76594681       0.00000000
Si       2.61822654      -0.13190013       2.76701552       0.00000000
