10
Lattice="16.28999089631971 0.0 0.0 0.0 16.28999089631971 0.0 0.0 0.0 34.474598006748145" Properties=species:S:1:pos:R:3:initial_magmoms:R:1 pbc="T T T"
Si       1.35514881       1.32499602      -1.36560854       0.00000000
Si       1.39468464      -1.28897883       1.37550275       0.00000000
Si      -1.36052451      -1.38774510      -1.36643593       0.00000000
Si      -1.21598334       1.45624455       1.50819556       0.00000000
Si      -0.45400230      -1.99594854       2.80006289       0.00000000
Si      -2.27520801      -0.24110829       2.73728461       0.00000000
Si      -2.70024669       2.67722892       0.00885998       0.00000000
Si       0.00211770       2.68452684      -2.72473585       0.00000000
Si       2.70405855       2.70899442       0.01547910       0.00000000
Si      -2.71182888      -0.03093471      -2.72601141       0.00000000
