10
Lattice="16.28999089631971 0.0 0.0 0.0 16.28999089631971 0.0 0.0 0.0 34.474598006748145" Properties=species:S:1:pos:R:3:initial_magmoms:R:1 pbc="T T T"
Si       2.07396135       1.06447005      -0.70648833       0.00000000
Si      -0.74484396      -2.26157328       0.66935917       0.00000000
Si      -0.62797950       1.61243307       1.85442414       0.00000000
Si      -0.29209599      -0.13836726      -2.68036702       0.00000000
Si       1.57112163      -2.67209757      -0.05278064       0.00000000
Si      -3.29255109       1.41613857       0.18867958       0.00000000
Si       1.26848601       3.39071463      -0.81332517       0.00000000
Si       3.53830203       0.21365964       1.16644868       0.00000000
Si      -0.50640723       3.69010854       0.69707676       0.00000000
Si      -2.11330170       1.61647299      -2.74314530       0.00000000
