10
Lattice="16.28999089631971 0.0 0.0 0.0 16.28999089631971 0.0 0.0 0.0 34.474598006748145" Properties=species:S:1:pos:R:3:initial_magmoms:R:1 pbc="T T T"
Si       0.52530363      -2.27929680       0.01285903       0.00000000
Si       0.88179399       0.88023015       2.00397503       0.00000000
Si      -2.35766799       0.31273542      -0.15037828       0.00000000
Si       1.43871651       0.92229093      -1.68877360       0.00000000
Si       1.31023728       3.15556848      -0.91099176       0.00000000
Si       2.86599744      -2.06672859       0.21308761       0.00000000
Si      -2.40171615       2.04273342      -1.73710702       0.00000000
Si       3.46198338      -0.16581591      -1.06185269       0.00000000
Si       1.59021351       3.06405126       1.44021161       0.00000000
Si      -3.17498616      -1.99635579      -0.47671501       0.00000000
