10
Lattice="16.28999089631971 0.0 0.0 0.0 16.28999089631971 0.0 0.0 0.0 34.474598006748145" Properties=species:S:1:pos:R:3:initial_magmoms:R:1 pbc="T T T"
Si       0.81901233       1.39865940      -1.69901256       0.00000000
Si       0.78348384       0.18902916       2.21571813       0.00000000
Si      -2.31765975       0.46063233      -0.18919670       0.00000000
Si       0.73982664      -2.03260104      -1.00538326       0.00000000
Si      -0.76246974      -1.82954619      -2.82281614       0.00000000
Si       0.01154961       0.29387160      -3.64689739       0.00000000
Si       3.15450963      -0.04057839       2.14094268       0.00000000
Si      -0.06173910      -1.70036649       3.44332477       0.00000000
Si       3.15970614       1.61122761      -1.49878399       0.00000000
Si       3.10834377      -1.94825142      -1.33306450       0.00000000
