10
Lattice="16.28999089631971 0.0 0.0 0.0 16.28999089631971 0.0 0.0 0.0 34.474598006748145" Properties=species:S:1:pos:R:3:initial_magmoms:R:1 pbc="T T T"
Si       1.87669760      -1.13802266       0.89313391       0.00000000
Si      -1.79246919      -0.51774507       1.65347159       0.00000000
Si      -0.62041998      -1.50089381      -2.06978707       0.00000000
Si       0.31470488       2.27408400       1.40928788       0.00000000
Si       1.54267114       1.35391077      -2.55418992       0.00000000
Si       2.49299716       1.95554934       2.26301730       0.00000000
Si      -0.24656448       0.22908627      -3.88515147       0.00000000
Si       3.84752696      -0.78480007      -0.52442788       0.00000000
Si      -3.20855889      -2.20156320       0.78560758       0.00000000
Si      -3.17019594       1.37039625       2.11856866       0.00000000
