10
Lattice="16.28999089631971 0.0 0.0 0.0 16.28999089631971 0.0 0.0 0.0 34.474598006748145" Properties=species:S:1:pos:R:3:initial_magmoms:R:1 pbc="T T T"
Si      -1.05922467      -1.69735284       1.22908906       0.00000000
Si       1.29588579       1.37487600       1.42469803       0.00000000
Si       1.21598334      -1.45624455      -1.50819556       0.00000000
Si      -1.48426335       1.22098437      -1.49933558       0.00000000
Si      -1.88946081       0.28051380       2.95226832       0.00000000
Si      -3.52005723       0.47697120       0.41535019       0.00000000
Si      -0.52831728       2.56171653       2.50482227       0.00000000
Si       0.76198104      -3.45219309       1.29186733       0.00000000
Si       2.61066798      -2.74522338      -0.13269280       0.00000000
Si       2.57113215      -0.13124853      -2.87380410       0.00000000
