10
Lattice="16.28999089631971 0.0 0.0 0.0 16.28999089631971 0.0 0.0 0.0 34.474598006748145" Properties=species:S:1:pos:R:3:initial_magmoms:R:1 pbc="T T T"
Si      -0.12847923       2.23327755       0.77778184       0.00000000
Si      -0.70154514      -0.00356751      -2.26691293       0.00000000
Si       2.02326687      -1.08810684       0.62692092       0.00000000
Si      -1.43871651      -0.92229093       1.68877360       0.00000000
Si       3.19406175       0.79475652       1.42145742       0.00000000
Si      -0.55692252      -0.04206078       3.69274863       0.00000000
Si      -0.91341288      -3.20158773       1.70163263       0.00000000
Si      -3.11024970       0.20865861      -2.07823335       0.00000000
Si       0.15149700       2.14176033       3.12898521       0.00000000
Si       1.42728093      -2.98901952       1.90186121       0.00000000
