10
Lattice="16.28999089631971 0.0 0.0 0.0 16.28999089631971 0.0 0.0 0.0 34.474598006748145" Properties=species:S:1:pos:R:3:initial_magmoms:R:1 pbc="T T T"
Si      -1.44493929       0.04432509      -1.89058801       0.00000000
Si      -1.94781159       0.42849216       1.32392873       0.00000000
Si       1.03329099       2.16432198      -0.46971666       0.00000000
Si       0.84051513      -2.17934136       1.27394053       0.00000000
Si      -0.42927408       1.60853976       2.81914256       0.00000000
Si      -3.46524138       0.47167695      -0.61178656       0.00000000
Si       0.57787146       3.40449597       1.48502861       0.00000000
Si       2.37467475      -1.09120194       2.75909123       0.00000000
Si      -1.61741781      -2.12600790      -2.72142629       0.00000000
Si       3.36471579       1.85777676      -0.59723827       0.00000000
