10
Lattice="16.28999089631971 0.0 0.0 0.0 16.28999089631971 0.0 0.0 0.0 34.474598006748145" Properties=species:S:1:pos:R:3:initial_magmoms:R:1 pbc="T T T"
Si       0.36647613      -1.11301425       1.96777668       0.00000000
Si      -0.63140040       2.28269556       0.48936719       0.00000000
Si      -1.98021240      -1.57033971      -0.31537380       0.00000000
Si       2.02360896      -0.80842383      -1.57297336       0.00000000
Si      -1.09136484       2.82958019      -1.76189426       0.00000000
Si       1.16672238      -3.21971850       1.28717879       0.00000000
Si      -1.95243795       0.85867198      -2.98888037       0.00000000
Si      -0.71974107      -3.15688797      -1.84956322       0.00000000
Si      -2.60222976       1.92947298       1.90692898       0.00000000
Si       0.78750747      -1.98553923      -3.14704991       0.00000000
