10
Lattice="16.28999089631971 0.0 0.0 0.0 16.28999089631971 0.0 0.0 0.0 34.474598006748145" Properties=species:S:1:pos:R:3:initial_magmoms:R:1 pbc="T T T"
Si      -1.30546431      -1.52565624       1.31079390       0.00000000
Si      -1.23411411       1.37822264      -1.54025695       0.00000000
Si       1.25641512       1.34558236       1.66150418       0.00000000
Si       1.48773312      -1.32916626      -1.53598210       0.00000000
Si      -2.54156580      -2.70277164      -0.26328265       0.00000000
Si       0.43932501      -3.22582725       1.83160194       0.00000000
Si       2.63542878       2.81135168       0.22439528       0.00000000
Si      -2.53835667       2.94536951      -0.18602503       0.00000000
Si      -2.59212996       0.01813077      -2.91972429       0.00000000
Si       0.12882132      -2.70322776      -2.91993113       0.00000000
