10
Lattice="16.28999089631971 0.0 0.0 0.0 16.28999089631971 0.0 0.0 0.0 34.474598006748145" Properties=species:S:1:pos:R:3:initial_magmoms:R:1 pbc="T T T"
Si      -1.66301352       1.61064117       0.05584888       0.00000000
Si       0.37638045       0.16803135       2.30952356       0.00000000
Si      -0.37901943      -2.03318748      -1.11146166       0.00000000
Si       1.72493181       1.03434984      -1.24025883       0.00000000
Si       2.07451521      -2.41352640      -0.17030461       0.00000000
Si       1.10988657      -1.66617378      -3.00504896       0.00000000
Si       0.48250980       2.18955519      -2.91310516       0.00000000
Si      -0.86701896       3.30077754       1.44638257       0.00000000
Si      -3.42065565       0.61861275       1.35299083       0.00000000
Si      -0.60838263      -1.72283040       3.29011957       0.00000000
