10
Lattice="16.28999089631971 0.0 0.0 0.0 16.28999089631971 0.0 0.0 0.0 34.474598006748145" Properties=species:S:1:pos:R:3:initial_magmoms:R:1 pbc="T T T"
Si       0.45541953      -1.24017399      -1.95474527       0.00000000
Si       1.78100199       1.05358833       1.22278162       0.00000000
Si      -1.00714554      -1.79595621       1.33411395       0.00000000
Si      -2.00231793       1.63413135      -0.31433956       0.00000000
Si       0.38147922       2.28482662       2.71654955       0.00000000
Si      -2.33502489      -0.45856350       2.73672409       0.00000000
Si      -0.57787146      -3.40449597      -1.48502861       0.00000000
Si       2.78684433      -1.54671921      -2.08226688       0.00000000
Si      -0.52282755      -0.02277342      -3.78858807       0.00000000
Si      -2.52568305      -2.97600381      -0.16109989       0.00000000
