10
Lattice="16.28999089631971 0.0 0.0 0.0 16.28999089631971 0.0 0.0 0.0 34.474598006748145" Properties=species:S:1:pos:R:3:initial_magmoms:R:1 pbc="T T T"
Si      -1.35161388       1.35656278       1.36029945       0.00000000
Si       1.36223496      -1.35789126       1.35916179       0.00000000
Si      -1.35954711      -1.33773773      -1.38294582       0.00000000
Si       1.36114353       1.35040516      -1.37679900       0.00000000
Si      -2.70969489       2.71316140      -0.00165478       0.00000000
Si      -2.71104696      -0.00174466       2.71653089       0.00000000
Si      -2.71148679      -2.71757340      -0.00393011       0.00000000
Si       0.00415395       2.71358494       2.71708249       0.00000000
Si       0.00368154      -2.71671003       2.71670326       0.00000000
Si       2.71878471      -0.00153126       2.71680669       0.00000000
