10
Lattice="16.28999089631971 0.0 0.0 0.0 16.28999089631971 0.0 0.0 0.0 34.474598006748145" Properties=species:S:1:pos:R:3:initial_magmoms:R:1 pbc="T T T"
Si      -1.36114353      -1.35040516       1.37679900       0.00000000
Si       1.35915615       1.36656810       1.37807456       0.00000000
Si       1.41237558      -1.37553086      -1.37769189       0.00000000
Si      -1.40556636       1.31400027      -1.46370606       0.00000000
Si       2.67667506       0.08720037      -2.72242058       0.00000000
Si      -2.72069064      -2.68814289      -0.00614682       0.00000000
Si       2.68881111       2.72710890       0.01250739       0.00000000
Si      -2.70021411       2.72582199       0.00307169       0.00000000
Si       2.73004110      -2.70605312       0.02377025       0.00000000
Si       0.00109143      -2.70829642       2.73596079       0.00000000
