10
Lattice="16.28999089631971 0.0 0.0 0.0 16.28999089631971 0.0 0.0 0.0 34.474598006748145" Properties=species:S:1:pos:R:3:initial_magmoms:R:1 pbc="T T T"
Si       1.34791605      -1.34966138       1.35926521       0.00000000
Si       1.35518139       1.35771123      -1.35499036       0.00000000
Si      -1.35814617      -1.35658213      -1.35564538       0.00000000
Si      -1.35575154       1.35684786       1.36123026       0.00000000
Si       2.71357191       0.00054571      -2.71249736       0.00000000
Si       2.71228500       2.71434243       0.00255112       0.00000000
Si      -0.00153126      -2.71463306      -2.71260079       0.00000000
Si      -0.00105885       2.71566192      -2.71222156       0.00000000
Si      -2.71564074      -2.71300406       0.00344746       0.00000000
Si      -2.71625976       0.00033232      -2.71277316       0.00000000
