10
Lattice="16.28999089631971 0.0 0.0 0.0 16.28999089631971 0.0 0.0 0.0 34.474598006748145" Properties=species:S:1:pos:R:3:initial_magmoms:R:1 pbc="T T T"
Si      -1.66148226      -0.09966222       1.58645294       0.00000000
Si       0.83065968       2.10491235      -0.90078727       0.00000000
Si       0.32342166      -2.24969624      -0.92691903       0.00000000
Si      -1.13652072      -0.78084486      -2.12001659       0.00000000
Si       0.63581499      -0.46903797       2.52681707       0.00000000
Si       2.77692372      -0.73259388       1.57197360       0.00000000
Si       2.29574970      -2.68153437       0.35274428       0.00000000
Si      -3.30633243      -1.56370805       0.67022103       0.00000000
Si      -3.45248631      -0.37032057      -1.39787678       0.00000000
Si      -2.70764235       1.89125271      -2.06723595       0.00000000
