10
Lattice="16.28999089631971 0.0 0.0 0.0 16.28999089631971 0.0 0.0 0.0 34.474598006748145" Properties=species:S:1:pos:R:3:initial_magmoms:R:1 pbc="T T T"
Si      -0.19008801       2.02386960       1.17079248       0.00000000
Si       2.14110873      -0.26355591      -0.95484347       0.00000000
Si      -0.39286593      -2.11053403       1.13280145       0.00000000
Si      -2.29729725       0.36937575      -0.94036414       0.00000000
Si      -0.63581499       0.46903797      -2.52681707       0.00000000
Si      -2.44912005       2.21653143       0.49022906       0.00000000
Si       1.65993471      -2.21249640      -2.17407279       0.00000000
Si       0.10997379       1.36938627       3.36575688       0.00000000
Si       1.09993338      -3.48818489      -0.20605479       0.00000000
Si       3.75463323      -0.63371358       0.79164064       0.00000000
