10
Lattice="16.28999089631971 0.0 0.0 0.0 16.28999089631971 0.0 0.0 0.0 34.474598006748145" Properties=species:S:1:pos:R:3:initial_magmoms:R:1 pbc="T T T"
Si      -0.27868932       2.10632958      -1.01562222       0.00000000
Si       1.91283696      -0.44944322      -1.37557170       0.00000000
Si      -2.01901518      -1.14468920      -0.65170816       0.00000000
Si       0.35476362       0.79074429       2.31952120       0.00000000
Si      -1.90322586       1.82294874       2.43063289       0.00000000
Si      -1.30779378      -1.85599205      -2.80644069       0.00000000
Si       2.05482060      -2.75676389      -1.50009402       0.00000000
Si      -1.42475598       1.77350859      -3.12477931       0.00000000
Si      -1.37859012       3.68118162       0.34922787       0.00000000
Si       1.91673027       3.13302312      -1.48302909       0.00000000
