10
Lattice="16.28999089631971 0.0 0.0 0.0 16.28999089631971 0.0 0.0 0.0 34.474598006748145" Properties=species:S:1:pos:R:3:initial_magmoms:R:1 pbc="T T T"
Si       1.75202208       0.77054958      -1.47206616       0.00000000
Si      -0.99948924      -1.90443132      -1.15062483       0.00000000
Si      -1.66667877       1.78735509      -0.18209493       0.00000000
Si       0.74003841       0.22186980       2.55887847       0.00000000
Si       1.84003695       2.30990571       2.05330820       0.00000000
Si       0.55112328       2.10422817      -2.94392547       0.00000000
Si      -2.15829468      -0.63897525      -2.91251909       0.00000000
Si      -2.95472907       1.32626664       1.84301304       0.00000000
Si       2.52278343       2.77904142      -0.17071830       0.00000000
Si      -3.47209947       0.83039904      -1.55542578       0.00000000
