10
Lattice="16.28999089631971 0.0 0.0 0.0 16.28999089631971 0.0 0.0 0.0 34.474598006748145" Properties=species:S:1:pos:R:3:initial_magmoms:R:1 pbc="T T T"
Si       1.00980081      -1.83164760      -0.97725198       0.00000000
Si       0.70793082       0.20895183       2.20051482       0.00000000
Si      -2.34069381      -0.21256821      -0.20022858       0.00000000
Si       0.59598594       1.90091268      -1.27494030       0.00000000
Si       0.70973901      -1.17716427      -3.17221638       0.00000000
Si       0.26722116       2.49882084       2.38616063       0.00000000
Si      -2.86599744       2.06672859      -0.21308761       0.00000000
Si      -0.05136237      -3.55947903       0.16571949       0.00000000
Si       1.97332173       0.86680719      -2.93444495       0.00000000
Si       3.07011114       0.11622915       2.03882887       0.00000000
