10
Lattice="16.28999089631971 0.0 0.0 0.0 16.28999089631971 0.0 0.0 0.0 34.474598006748145" Properties=species:S:1:pos:R:3:initial_magmoms:R:1 pbc="T T T"
Si      -1.42434873       1.26258903      -1.37670937       0.00000000
Si       1.28950011      -1.46155509      -1.40518540       0.00000000
Si       1.71905112       1.14341139       1.26201231       0.00000000
Si      -0.92830194      -1.77842817       1.35664514       0.00000000
Si       3.26116026      -0.78674184       1.36802176       0.00000000
Si       2.49039891      -2.79523368       0.06667391       0.00000000
Si      -0.05924673       2.59367751      -2.75286714       0.00000000
Si       2.66040135      -0.12282660      -2.76055498       0.00000000
Si      -2.73372264      -2.73538422      -0.01668571       0.00000000
Si      -2.77325847      -0.12140937      -2.75779701       0.00000000
