10
Lattice="16.28999089631971 0.0 0.0 0.0 16.28999089631971 0.0 0.0 0.0 34.474598006748145" Properties=species:S:1:pos:R:3:initial_magmoms:R:1 pbc="T T T"
Si       1.61849295      -1.45114578      -0.92154099       0.00000000
Si       0.78864777       2.10512412       0.72600097       0.00000000
Si      -1.40680440      -0.14765256      -1.93833536       0.00000000
Si      -0.07141536      -0.96040953       2.31362604       0.00000000
Si      -0.97200801       1.40041872       2.42249688       0.00000000
Si      -1.34762283      -2.72684826       1.28118020       0.00000000
Si       0.97995753       2.92254003      -1.50640288       0.00000000
Si      -0.81234972       2.05175808      -2.74448981       0.00000000
Si       0.92491362      -3.43476279       0.33688596       0.00000000
Si      -2.18103552      -2.77887852      -0.91064702       0.00000000
