10
Lattice="16.28999089631971 0.0 0.0 0.0 16.28999089631971 0.0 0.0 0.0 34.474598006748145" Properties=species:S:1:pos:R:3:initial_magmoms:R:1 pbc="T T T"
Si      -1.22220612      -1.62129483      -1.10539413       0.00000000
Si       1.45036386      -0.84040110       1.72052472       0.00000000
Si       0.56000133       1.27568849      -1.96801800       0.00000000
Si      -1.49279931       1.37765086       1.33885624       0.00000000
Si       1.04117535       3.22462898      -0.74878869       0.00000000
Si      -0.23058495      -2.22918876       2.77637883       0.00000000
Si      -1.09993338       3.48818489       0.20605479       0.00000000
Si      -2.46462813      -0.46608948      -2.77824046       0.00000000
Si       2.61351873       1.07272323       2.60969405       0.00000000
Si       0.13937724      -3.17552373      -2.27456630       0.00000000
