10
Lattice="16.28999089631971 0.0 0.0 0.0 16.28999089631971 0.0 0.0 0.0 34.474598006748145" Properties=species:S:1:pos:R:3:initial_magmoms:R:1 pbc="T T T"
Si      -2.00394693       0.99633617      -0.71152163       0.00000000
Si       0.71122140      -0.71130285      -2.15473253       0.00000000
Si       2.01901518       1.14468920       0.65170816       0.00000000
Si      -1.18780164      -1.61025021       1.37419272       0.00000000
Si      -2.93073390      -0.66907917      -2.11581069       0.00000000
Si       1.74032586       3.25101878      -0.36391406       0.00000000
Si       0.59425920       2.91819779      -2.47307114       0.00000000
Si      -3.52461843       1.41129785       0.98990416       0.00000000
Si      -1.10973996      -0.90815121      -3.66758216       0.00000000
Si      -1.99177830      -3.42601506       0.01406564       0.00000000
