10
Lattice="16.28999089631971 0.0 0.0 0.0 16.28999089631971 0.0 0.0 0.0 34.474598006748145" Properties=species:S:1:pos:R:3:initial_magmoms:R:1 pbc="T T T"
Si       1.31766552      -1.33052226       1.40146214       0.00000000
Si       1.26429948       1.46273123      -1.34472868       0.00000000
Si      -0.99613350      -1.55042097      -1.51910130       0.00000000
Si      -1.41237558       1.37553086       1.37769189       0.00000000
Si       0.86099166      -3.29382564      -1.38454687       0.00000000
Si      -0.38735991       2.14666688      -3.02998587       0.00000000
Si      -2.73354345      -2.54385033      -0.12222286       0.00000000
Si       2.61135216       2.75544047       0.05580062       0.00000000
Si       2.75281452      -2.63728977       0.09480864       0.00000000
Si       2.65976604       0.02217069       2.75807625       0.00000000
