10
Lattice="16.28999089631971 0.0 0.0 0.0 16.28999089631971 0.0 0.0 0.0 34.474598006748145" Properties=species:S:1:pos:R:3:initial_magmoms:R:1 pbc="T T T"
Si      -1.34687349      -1.36043721      -1.39680807       0.00000000
Si       1.38003993       1.34739151      -1.38836179       0.00000000
Si       0.94372857      -1.76056848       1.31075942       0.00000000
Si      -1.54486215       1.42691929       1.75096581       0.00000000
Si      -2.70366759       2.69237536      -0.01092845       0.00000000
Si      -2.69255781      -2.71359864      -0.00941157       0.00000000
Si       2.72305269       2.70066697       0.01223849       0.00000000
Si      -2.69478954      -0.01077584      -2.75607328       0.00000000
Si       0.01749546       2.70356659      -2.75352216       0.00000000
Si       2.72720664      -2.73270681      -0.01858182       0.00000000
