10
Lattice="16.28999089631971 0.0 0.0 0.0 16.28999089631971 0.0 0.0 0.0 34.474598006748145" Properties=species:S:1:pos:R:3:initial_magmoms:R:1 pbc="T T T"
Si       1.32965496       1.36054080      -1.36556717       0.00000000
Si      -1.35870003       1.35428544       1.35819650       0.00000000
Si       1.35609363      -1.36161594       1.35888599       0.00000000
Si      -1.35915615      -1.36656810      -1.37807456       0.00000000
Si       2.66457159       0.01334151      -2.69996584       0.00000000
Si      -2.71647153       2.70878265      -0.00027580       0.00000000
Si      -0.00122175       2.71085148       2.71522086       0.00000000
Si       2.71572219       2.71049310      -0.00410248       0.00000000
Si       2.71366965      -0.00345348       2.71553113       0.00000000
Si      -2.71614573      -0.00338832       2.71580692       0.00000000
