10
Lattice="16.28999089631971 0.0 0.0 0.0 16.28999089631971 0.0 0.0 0.0 34.474598006748145" Properties=species:S:1:pos:R:3:initial_magmoms:R:1 pbc="T T T"
Si      -1.33491663       1.34719929       1.33439867       0.00000000
Si      -1.34705268      -1.29270924      -1.40052930       0.00000000
Si       1.12205520       1.65325581      -1.25448582       0.00000000
Si       1.40869414      -1.37999106       1.32405973       0.00000000
Si       0.62882658      -1.54821789      -2.94333737       0.00000000
Si      -0.77998149       3.29602086      -1.54663273       0.00000000
Si      -2.75348241       2.52582966      -0.31570476       0.00000000
Si       2.00958068       0.55242648      -3.14191117       0.00000000
Si      -2.66457159      -0.01334151       2.69996584       0.00000000
Si      -2.61135216      -2.75544047      -0.05580062       0.00000000
