10
Lattice="16.28999089631971 0.0 0.0 0.0 16.28999089631971 0.0 0.0 0.0 34.474598006748145" Properties=species:S:1:pos:R:3:initial_magmoms:R:1 pbc="T T T"
Si      -1.35710361      -1.35663120      -1.35754148       0.00000000
Si      -1.35498591       1.35936792       1.35795517       0.00000000
Si       1.35883035       1.35892809      -1.35733463       0.00000000
Si       1.36254447      -1.35617508       1.36516037       0.00000000
Si      -2.71228500      -2.71434243      -0.00255112       0.00000000
Si      -2.71334385       0.00131949      -2.71477269       0.00000000
Si      -2.71373481       2.71507059      -0.00165478       0.00000000
Si       0.00128691      -2.71379671      -2.71504848       0.00000000
Si       0.00158013       2.71555929      -2.71535875       0.00000000
Si       2.71647153       0.00125433      -2.71504848       0.00000000
