10
Lattice="16.28999089631971 0.0 0.0 0.0 16.28999089631971 0.0 0.0 0.0 34.474598006748145" Properties=species:S:1:pos:R:3:initial_magmoms:R:1 pbc="T T T"
Si       1.90104300      -0.21712941       1.44093558       0.00000000
Si       1.77279183       0.57086676      -1.67294975       0.00000000
Si      -0.87985548       2.33997705       0.19174782       0.00000000
Si      -0.42588576      -2.13745977      -1.30021019       0.00000000
Si      -1.79633088      -0.65423898       1.69987443       0.00000000
Si       2.87552613       1.92961566       1.16362176       0.00000000
Si       2.92733973      -1.49218029      -1.72269663       0.00000000
Si       3.02114896      -2.10295755       0.57551926       0.00000000
Si      -0.71635275       2.68664454       2.52102534       0.00000000
Si      -0.46706688      -3.91920784       0.31178844       0.00000000
