10
Lattice="16.28999089631971 0.0 0.0 0.0 16.28999089631971 0.0 0.0 0.0 34.474598006748145" Properties=species:S:1:pos:R:3:initial_magmoms:R:1 pbc="T T T"
Si      -1.06318314      -2.04213069      -0.35257191       0.00000000
Si       2.23006842       0.24206940      -0.73420592       0.00000000
Si      -0.50637465       0.63410454       2.21795898       0.00000000
Si      -0.43450317       0.04577490      -2.39995048       0.00000000
Si      -2.05052004       1.64103831      -1.57569686       0.00000000
Si      -0.82860714      -2.96935749       1.84497809       0.00000000
Si       0.76414761       2.66805765       2.36833726       0.00000000
Si       0.01760949      -1.26130212       3.49117554       0.00000000
Si       2.35164069       2.31974487      -1.89155330       0.00000000
Si      -3.24147542      -1.72359603      -1.20630133       0.00000000
