10
Lattice="16.28999089631971 0.0 0.0 0.0 16.28999089631971 0.0 0.0 0.0 34.474598006748145" Properties=species:S:1:pos:R:3:initial_magmoms:R:1 pbc="T T T"
Si      -1.28594889      -1.93999239       0.28879387       0.00000000
Si      -1.04914116       2.01264579       0.70559199       0.00000000
Si       1.37006460       0.09764226      -1.99597692       0.00000000
Si       1.61388029      -1.01356380       1.52201988       0.00000000
Si      -0.89080236      -2.83217940      -1.80433252       0.00000000
Si       0.72635481       0.08726553       3.40944523       0.00000000
Si       0.23312619      -3.11420817       1.72059367       0.00000000
Si      -2.83783203       1.98922077      -0.90475186       0.00000000
Si       0.98332956      -2.00334420      -2.98967328       0.00000000
Si      -1.17568188       1.73003058       3.11729832       0.00000000
