10
Lattice="16.28999089631971 0.0 0.0 0.0 16.28999089631971 0.0 0.0 0.0 34.474598006748145" Properties=species:S:1:pos:R:3:initial_magmoms:R:1 pbc="T T T"
Si       1.04914116      -2.01264579      -0.70559199       0.00000000
Si      -1.78869087      -0.02342502      -1.61034385       0.00000000
Si       1.66084695       1.74224808      -0.29834334       0.00000000
Si      -0.12654072      -0.28261521       2.41170633       0.00000000
Si       0.20571012       3.30343281       1.00658988       0.00000000
Si      -1.09511154       1.96019199      -2.86877080       0.00000000
Si       1.18765503       2.47567275      -2.50620125       0.00000000
Si      -2.78501985       2.45092824       0.36639623       0.00000000
Si       1.77549597      -1.92538026       2.70385324       0.00000000
Si      -0.23680773      -3.95263818      -0.41679812       0.00000000
