10
Lattice="16.28999089631971 0.0 0.0 0.0 16.28999089631971 0.0 0.0 0.0 34.474598006748145" Properties=species:S:1:pos:R:3:initial_magmoms:R:1 pbc="T T T"
Si      -0.30305916      -1.72670742      -1.59486474       0.00000000
Si       1.78869087       0.02342502       1.61034385       0.00000000
Si       0.69357933       1.98361701      -1.25842695       0.00000000
Si      -2.27253645       0.70791453       0.94429424       0.00000000
Si      -0.99632898       2.47435326       1.97674008       0.00000000
Si      -3.10594914       0.65588427      -1.24753298       0.00000000
Si      -2.66523948      -1.63398474      -1.43317879       0.00000000
Si      -0.92491362       3.43476279      -0.33688596       0.00000000
Si       2.83783203      -1.98922077       0.90475186       0.00000000
Si       0.99082296      -0.85357971      -3.36382631       0.00000000
