10
Lattice="16.28999089631971 0.0 0.0 0.0 16.28999089631971 0.0 0.0 0.0 34.474598006748145" Properties=species:S:1:pos:R:3:initial_magmoms:R:1 pbc="T T T"
Si       1.32895449       1.40950854      -1.31020925       0.00000000
Si       1.49729535      -1.14590376       1.43561614       0.00000000
Si      -1.23341364       1.56704913       1.42490833       0.00000000
Si      -0.70276689      -1.90653273      -1.43300783       0.00000000
Si      -0.37051605       1.67951529      -2.83812429       0.00000000
Si       0.12836520      -2.50540200       2.80948825       0.00000000
Si       2.93691663      -2.38738095      -0.10350314       0.00000000
Si      -2.67626781      -2.67672393      -0.20207986       0.00000000
Si      -2.58908373       0.21170484       2.81062591       0.00000000
Si       1.19926980      -3.54929778      -1.14086092       0.00000000
