10
Lattice="16.28999089631971 0.0 0.0 0.0 16.28999089631971 0.0 0.0 0.0 34.474598006748145" Properties=species:S:1:pos:R:3:initial_magmoms:R:1 pbc="T T T"
Si       1.10240946       1.58382783      -1.25180783       0.00000000
Si      -1.71905112      -1.14341139      -1.26201231       0.00000000
Si       0.40526262       1.13816601       2.09871128       0.00000000
Si       1.54210914      -1.93015323       0.10600945       0.00000000
Si      -0.58371957      -0.65612862       3.18514436       0.00000000
Si       0.85936266      -2.39928894       2.33003596       0.00000000
Si       2.29588002       0.11122812      -2.66585320       0.00000000
Si      -0.42955101      -2.60496648      -2.66719771       0.00000000
Si       3.01677768       2.38630581       0.01844392       0.00000000
Si      -0.40378023       2.82379005      -2.64461684       0.00000000
