10
Lattice="16.28999089631971 0.0 0.0 0.0 16.28999089631971 0.0 0.0 0.0 34.474598006748145" Properties=species:S:1:pos:R:3:initial_magmoms:R:1 pbc="T T T"
Si      -1.35048987       1.35123921       1.35485246       0.00000000
Si       1.35781573       1.35606105      -1.35612802       0.00000000
Si      -1.35558864      -1.35816246      -1.35657619       0.00000000
Si       1.35483855      -1.35755973       1.35819650       0.00000000
Si      -0.00215028      -2.69842221       2.71429004       0.00000000
Si      -2.71181259      -2.71487511       0.00272349       0.00000000
Si       2.71447342       2.71295289       0.00255112       0.00000000
Si       0.00084708       2.71397916      -2.71349713       0.00000000
Si      -2.71425609      -0.00066789      -2.71339370       0.00000000
Si      -2.71414206       2.71394658       0.00341299       0.00000000
