10
Lattice="16.28999089631971 0.0 0.0 0.0 16.28999089631971 0.0 0.0 0.0 34.474598006748145" Properties=species:S:1:pos:R:3:initial_magmoms:R:1 pbc="T T T"
Si       0.37268262       1.95807496      -1.19147725       0.00000000
Si      -0.54812592      -1.86676884      -1.30600193       0.00000000
Si      -1.93489362      -0.50029848       1.51367702       0.00000000
Si       1.76015472       0.85704948       1.58121931       0.00000000
Si      -0.04307076       0.15623739       2.99303253       0.00000000
Si       3.44739473      -0.89813286       1.41228717       0.00000000
Si      -0.63226377      -3.85895439       0.00227532       0.00000000
Si      -2.76293061      -1.64592531      -2.22554339       0.00000000
Si      -0.62320653       1.97392350      -3.35524213       0.00000000
Si       2.79968152       2.67823957      -1.06009448       0.00000000
