10
Lattice="16.28999089631971 0.0 0.0 0.0 16.28999089631971 0.0 0.0 0.0 34.474598006748145" Properties=species:S:1:pos:R:3:initial_magmoms:R:1 pbc="T T T"
Si      -0.13051548       1.01682180      -2.14911317       0.00000000
Si       0.59919507      -2.28809340       0.55614453       0.00000000
Si       1.74402369       1.24866108       1.19654502       0.00000000
Si      -2.23882592      -0.40565358       0.95949755       0.00000000
Si      -0.16047279      -2.00282292       2.71639299       0.00000000
Si      -2.48264161       0.70555248      -2.55849925       0.00000000
Si       0.20768121       2.87303472       2.26019038       0.00000000
Si       0.32511582       3.31364664      -1.84635708       0.00000000
Si       0.74891646      -0.39640086      -3.79138051       0.00000000
Si      -3.85270622       0.60791022      -0.56252233       0.00000000
