10
Lattice="16.28999089631971 0.0 0.0 0.0 16.28999089631971 0.0 0.0 0.0 34.474598006748145" Properties=species:S:1:pos:R:3:initial_magmoms:R:1 pbc="T T T"
Si      -1.35698883      -1.34086248       1.35609355       0.00000000
Si      -1.35483855       1.35755973      -1.35819650       0.00000000
Si       1.36179655      -1.35501849      -1.35774833       0.00000000
Si       1.36553022       1.36057338       1.35919626       0.00000000
Si      -2.55045939       0.13173723       2.77013892       0.00000000
Si      -2.70532842       2.70879894      -0.00334404       0.00000000
Si      -2.71042719      -0.00060273      -2.71477269       0.00000000
Si       0.00297718       2.71362078      -2.71432452       0.00000000
Si       0.00323268      -2.71575477      -2.71322133       0.00000000
Si      -2.71151862      -2.71832859      -0.00062054       0.00000000
