10
Lattice="16.28999089631971 0.0 0.0 0.0 16.28999089631971 0.0 0.0 0.0 34.474598006748145" Properties=species:S:1:pos:R:3:initial_magmoms:R:1 pbc="T T T"
Si       1.35646830       1.35777150       1.35740358       0.00000000
Si       1.35687555      -1.35392706      -1.36109236       0.00000000
Si      -1.35875704      -1.35720135       1.35761043       0.00000000
Si      -1.35731049       1.35905841      -1.36212660       0.00000000
Si       2.71366965      -2.71441899       0.00031027       0.00000000
Si       2.70630657      -0.00641826      -2.72217439       0.00000000
Si       2.71396287       0.00006516       2.71484164       0.00000000
Si      -0.00063531      -2.71450044       2.71525533       0.00000000
Si      -2.71588533      -2.71412577       0.00079292       0.00000000
Si      -0.00171045       2.71597613       2.71504848       0.00000000
