10
Lattice="16.28999089631971 0.0 0.0 0.0 16.28999089631971 0.0 0.0 0.0 34.474598006748145" Properties=species:S:1:pos:R:3:initial_magmoms:R:1 pbc="T T T"
Si      -1.53033799       1.30539915      -1.30389897       0.00000000
Si      -0.92072709      -2.30019687       0.24528690       0.00000000
Si      -1.21716436      -0.75466683       2.09233347       0.00000000
Si       1.26047133      -1.58654826      -1.53418942       0.00000000
Si       1.98021240       1.57033971       0.31537380       0.00000000
Si       2.34668853       0.45732546       2.28315048       0.00000000
Si       0.43640910       0.12193065       3.54599018       0.00000000
Si       0.02777445       2.42901169      -2.67350657       0.00000000
Si      -3.41097029      -1.07782785       0.51411997       0.00000000
Si      -2.56165398      -0.31302864      -2.74004258       0.00000000
