10
Lattice="16.28999089631971 0.0 0.0 0.0 16.28999089631971 0.0 0.0 0.0 34.474598006748145" Properties=species:S:1:pos:R:3:initial_magmoms:R:1 pbc="T T T"
Si       1.55811244       1.12361254      -1.36960760       0.00000000
Si      -1.03131599      -1.61842779      -1.43614361       0.00000000
Si       1.53033799      -1.30539915       1.30389897       0.00000000
Si      -1.58879695       1.83154239       0.56328077       0.00000000
Si      -1.88063230      -2.38322700       1.81801894       0.00000000
Si       0.17011158       2.35857276      -2.81792074       0.00000000
Si      -2.54286967      -0.36610146      -2.80964683       0.00000000
Si       3.51055039       0.26494056       1.61927277       0.00000000
Si       2.41918555       3.09452075      -0.14262149       0.00000000
Si      -1.81799725      -3.49653447      -0.14775821       0.00000000
