10
Lattice="16.28999089631971 0.0 0.0 0.0 16.28999089631971 0.0 0.0 0.0 34.474598006748145" Properties=species:S:1:pos:R:3:initial_magmoms:R:1 pbc="T T T"
Si       0.81290358      -2.09737008      -0.71193532       0.00000000
Si      -0.24552288       1.28051196      -2.03562273       0.00000000
Si      -2.24649330      -0.80311329       0.58982623       0.00000000
Si       1.70093664       1.41354099       1.11725340       0.00000000
Si      -3.17202857       1.36232685       0.94398397       0.00000000
Si      -1.54666708       2.69712620       2.06140974       0.00000000
Si      -0.84066989      -2.97396756      -2.16559203       0.00000000
Si       2.72318301      -1.76197527      -1.97477503       0.00000000
Si       0.60535269       3.44685716       1.53181067       0.00000000
Si       1.08069489      -3.59554509       1.13400806       0.00000000
