10
Lattice="16.28999089631971 0.0 0.0 0.0 16.28999089631971 0.0 0.0 0.0 34.474598006748145" Properties=species:S:1:pos:R:3:initial_magmoms:R:1 pbc="T T T"
Si       1.91027943       0.33539481      -1.26283971       0.00000000
Si      -0.81290358       2.09737008       0.71193532       0.00000000
Si      -1.65357347      -0.87659748      -1.45365671       0.00000000
Si       0.26779131      -1.49817501       1.84594338       0.00000000
Si      -3.05939688       1.29425679       1.30176155       0.00000000
Si      -0.43640910      -0.12193065      -3.54599018       0.00000000
Si       3.33005067       1.33674111       0.28748383       0.00000000
Si      -3.70992437      -0.40044078      -0.34264322       0.00000000
Si       2.71052568      -1.77130944      -1.94343760       0.00000000
Si      -1.05842646       3.37788204      -1.32368740       0.00000000
