10
Lattice="16.28999089631971 0.0 0.0 0.0 16.28999089631971 0.0 0.0 0.0 34.54679606040008" Properties=species:S:1:pos:R:3:initial_magmoms:R:1 pbc="T T T"
Si      -1.39659613       0.57769227      -1.77722637       0.00000000
Si      -1.02585202      -2.07259299       0.61448420       0.00000000
Si      -0.64030940       1.45674858       1.81982259       0.00000000
Si       2.26326907       0.07687251      -0.96078148       0.00000000
Si       3.13093963       2.08991482      -0.14502753       0.00000000
Si      -0.58417080       0.01312974       3.75468608       0.00000000
Si      -1.16513152      -3.38628375      -1.34815492       0.00000000
Si       3.55319272      -1.41437925       0.31959259       0.00000000
Si      -0.84423332      -0.58088511      -3.74528935       0.00000000
Si      -1.49032879       2.86354484      -2.19068266       0.00000000
