10
Lattice="16.28999089631971 0.0 0.0 0.0 16.28999089631971 0.0 0.0 0.0 34.54679606040008" Properties=species:S:1:pos:R:3:initial_magmoms:R:1 pbc="T T T"
Si       1.79883954       1.04499535      -1.10686684       0.00000000
Si      -1.21485933       1.45397210       1.41782894       0.00000000
Si       1.48781457      -1.27363463       1.37768554       0.00000000
Si      -1.71939321      -1.18556698      -1.24323210       0.00000000
Si       0.74943774       1.64371801      -3.13790593       0.00000000
Si      -3.30054948       0.83451226      -1.34140244       0.00000000
Si      -2.61798219       2.70701518       0.06418107       0.00000000
Si      -2.57725719       0.09915071       2.76816377       0.00000000
Si       0.13776453      -2.61464178       2.77068568       0.00000000
Si       0.13781340       2.81433371       2.77217120       0.00000000
