10
Lattice="16.28999089631971 0.0 0.0 0.0 16.28999089631971 0.0 0.0 0.0 34.54679606040008" Properties=species:S:1:pos:R:3:initial_magmoms:R:1 pbc="T T T"
Si      -1.00206699      -1.03457890      -1.88300872       0.00000000
Si       2.22326246      -0.73697689       0.44009188       0.00000000
Si      -0.03189745       2.35641985      -0.45708891       0.00000000
Si      -1.46282964      -0.34683139       1.87188464       0.00000000
Si      -3.14905641      -0.10363798      -1.45711558       0.00000000
Si      -1.18280454       1.77369397       2.88928836       0.00000000
Si       1.99078787      -3.03492574      -0.07963041       0.00000000
Si      -3.49471392      -1.00437724       0.70181855       0.00000000
Si       1.29530261       3.28563403       1.28876895       0.00000000
Si       2.95175126      -0.06872851       2.63972216       0.00000000
