10
Lattice="16.28999089631971 0.0 0.0 0.0 16.28999089631971 0.0 0.0 0.0 34.54679606040008" Properties=species:S:1:pos:R:3:initial_magmoms:R:1 pbc="T T T"
Si       1.42122105       1.36536264      -1.32124295       0.00000000
Si      -0.21812310       0.51508980       2.34144496       0.00000000
Si      -1.51806510      -1.53208169      -1.09129935       0.00000000
Si       1.17177228      -1.22481252       3.18690917       0.00000000
Si      -0.03101616       2.57484627      -2.73586595       0.00000000
Si       2.69638596      -0.15116305      -2.72978571       0.00000000
Si      -2.73699041      -0.16438402      -2.72429277       0.00000000
Si       1.07118153       2.41048017       2.87996072       0.00000000
Si      -0.03295467      -2.86142714      -2.72526008       0.00000000
Si       2.90313864       2.73772998       0.05068018       0.00000000
