10
Lattice="16.28999089631971 0.0 0.0 0.0 16.28999089631971 0.0 0.0 0.0 34.54679606040008" Properties=species:S:1:pos:R:3:initial_magmoms:R:1 pbc="T T T"
Si      -1.38989538       1.73990232      -0.84546421       0.00000000
Si       0.25731684      -2.21712506      -0.84363323       0.00000000
Si      -0.36342990      -0.22072396       2.40086548       0.00000000
Si       2.29851900       0.96255004      -0.06280611       0.00000000
Si       1.68774174      -1.44667322       2.60707542       0.00000000
Si       0.32710320       1.94439069       2.90003242       0.00000000
Si       1.62438993       2.91191895       1.14636697       0.00000000
Si      -1.17177228       1.22481252      -3.18690917       0.00000000
Si      -0.10059075       3.63529269      -0.30694845       0.00000000
Si       1.10718243      -3.37953059       1.38784921       0.00000000
