10
Lattice="16.28999089631971 0.0 0.0 0.0 16.28999089631971 0.0 0.0 0.0 34.54679606040008" Properties=species:S:1:pos:R:3:initial_magmoms:R:1 pbc="T T T"
Si       0.69053310       2.16511465       0.49916694       0.00000000
Si      -1.91596464      -0.78883968       1.20758393       0.00000000
Si       2.05117164      -1.22594925       0.20620994       0.00000000
Si       0.36342990       0.22072396      -2.40086548       0.00000000
Si      -1.18747584      -0.12059130       3.40721421       0.00000000
Si       1.22267853       0.06692225       3.41170530       0.00000000
Si       1.47061233      -3.15880662      -1.01301627       0.00000000
Si       1.94561244       2.04574153       2.44142344       0.00000000
Si       2.66194890       1.18327400      -2.46367159       0.00000000
Si      -2.14843923      -3.08678853       0.68786164       0.00000000
