10
Lattice="16.28999089631971 0.0 0.0 0.0 16.28999089631971 0.0 0.0 0.0 34.54679606040008" Properties=species:S:1:pos:R:3:initial_magmoms:R:1 pbc="T T T"
Si       2.13587964       0.57994029      -0.65797865       0.00000000
Si      -1.25507934       0.11937312      -1.94225651       0.00000000
Si      -0.72293391      -1.97881928       0.97028186       0.00000000
Si      -0.69359562       1.84982724       1.26199517       0.00000000
Si       1.58718357       2.26442403      -2.22004745       0.00000000
Si       0.16076601      -1.71343107       3.10292586       0.00000000
Si       0.84906738      -3.45951449      -0.01782616       0.00000000
Si       3.24342045       0.72425340       1.37368502       0.00000000
Si      -2.79086796       1.76477715      -1.47780912       0.00000000
Si       2.35530594      -1.11713236       2.56917757       0.00000000
