10
Lattice="16.28999089631971 0.0 0.0 0.0 16.28999089631971 0.0 0.0 0.0 34.54679606040008" Properties=species:S:1:pos:R:3:initial_magmoms:R:1 pbc="T T T"
Si      -1.82519676      -0.77856426       1.20129641       0.00000000
Si      -0.86656284       1.52497206      -1.55215387       0.00000000
Si       0.69359562      -1.84982724      -1.26199517       0.00000000
Si       1.17600768       0.90099990       1.83844333       0.00000000
Si      -2.09727234      -0.08505009      -2.73980429       0.00000000
Si      -2.86515036       1.38065895       1.56970365       0.00000000
Si      -0.61195014      -2.04100668       2.84869585       0.00000000
Si       2.82947526      -1.26988695      -1.91997381       0.00000000
Si      -0.56148372      -1.73045412      -3.20425167       0.00000000
Si       1.06134237       2.31686154      -2.69223332       0.00000000
