10
Lattice="16.28999089631971 0.0 0.0 0.0 16.28999089631971 0.0 0.0 0.0 34.54679606040008" Properties=species:S:1:pos:R:3:initial_magmoms:R:1 pbc="T T T"
Si       1.35640314       1.35614250      -1.35734438       0.00000000
Si      -1.35819504      -1.35821133      -1.35696436       0.00000000
Si       1.35720135      -1.35972630       1.35751711       0.00000000
Si      -1.36037790       1.35643572       1.35941718       0.00000000
Si      -0.00070047       2.71368594      -2.71482694       0.00000000
Si      -2.71449392       2.71437012      -0.00096731       0.00000000
Si       2.71423980      -0.00112401      -2.71486149       0.00000000
Si       2.71248048      -2.71692765       0.00027637       0.00000000
Si       2.71433754       2.71510317      -0.00034547       0.00000000
Si      -2.71578083      -0.00143352      -2.71468875       0.00000000
