10
Lattice="16.28999089631971 0.0 0.0 0.0 16.28999089631971 0.0 0.0 0.0 34.54679606040008" Properties=species:S:1:pos:R:3:initial_magmoms:R:1 pbc="T T T"
Si       1.45223721      -1.20948363       1.41462300       0.00000000
Si      -1.34151408      -1.37248137      -1.37620694       0.00000000
Si       1.37212299       1.34092764      -1.38121623       0.00000000
Si      -1.41090948       1.34356662       1.52710743       0.00000000
Si       0.03101616      -2.57484627       2.73586595       0.00000000
Si      -2.69044500       2.69832447      -0.00808395       0.00000000
Si       2.71842633       2.70545949      -0.00756575       0.00000000
Si       0.01492164       2.70065394      -2.73873334       0.00000000
Si      -2.70276512      -0.01568727      -2.73835332       0.00000000
Si      -2.70597425      -2.73923029       0.01157318       0.00000000
