10
Lattice="16.28999089631971 0.0 0.0 0.0 16.28999089631971 0.0 0.0 0.0 34.54679606040008" Properties=species:S:1:pos:R:3:initial_magmoms:R:1 pbc="T T T"
Si       1.28930463       1.89539037       0.53851576       0.00000000
Si       1.38989538      -1.73990232       0.84546421       0.00000000
Si       0.21812310      -0.51508980      -2.34144496       0.00000000
Si      -1.99140363       0.91282644       1.45234812       0.00000000
Si      -0.40026159       2.50473411       2.07508901       0.00000000
Si       3.01428531       1.17201663       1.99183119       0.00000000
Si       3.68841438      -0.77735228       0.78265810       0.00000000
Si       1.02646548      -1.96062628       3.24632969       0.00000000
Si      -3.55891051       1.81721466      -0.02722289       0.00000000
Si       1.63934415       0.85027284      -3.66268791       0.00000000
