10
Lattice="16.28999089631971 0.0 0.0 0.0 16.28999089631971 0.0 0.0 0.0 34.54679606040008" Properties=species:S:1:pos:R:3:initial_magmoms:R:1 pbc="T T T"
Si       1.43327565       1.22562702       1.40291163       0.00000000
Si      -1.92790521      -0.79188948       1.14007945       0.00000000
Si      -0.51492690       1.73609046      -1.55647222       0.00000000
Si       1.21943682      -1.90226475      -0.78980929       0.00000000
Si      -1.06134237      -2.31686154       2.69223332       0.00000000
Si       2.53610865       2.72719035      -0.10256949       0.00000000
Si       0.18792144       0.69178743      -3.67502113       0.00000000
Si       0.07669332       2.21227974       3.10468775       0.00000000
Si      -0.32553936      -3.07978740      -2.26568379       0.00000000
Si       0.52553169       3.77001099      -0.78321085       0.00000000
