10
Lattice="16.28999089631971 0.0 0.0 0.0 16.28999089631971 0.0 0.0 0.0 34.54679606040008" Properties=species:S:1:pos:R:3:initial_magmoms:R:1 pbc="T T T"
Si       0.51492690      -1.73609046       1.55647222       0.00000000
Si       1.04045859       2.03392053       0.77326137       0.00000000
Si      -2.37871467       0.24762429      -0.39127723       0.00000000
Si       0.70284834      -1.04430303      -2.11854891       0.00000000
Si       3.05103555       0.99109989       1.45390272       0.00000000
Si       1.94820255      -0.51046344       2.95938384       0.00000000
Si      -2.47998960       0.81238230      -2.72405094       0.00000000
Si      -1.41297831      -2.52797994       2.69655167       0.00000000
Si      -3.20535072       2.32805277       0.29040053       0.00000000
Si      -0.33477579       3.11103162       2.48049589       0.00000000
