10
Lattice="16.28999089631971 0.0 0.0 0.0 16.28999089631971 0.0 0.0 0.0 34.54679606040008" Properties=species:S:1:pos:R:3:initial_magmoms:R:1 pbc="T T T"
Si       1.60559127      -1.75607829       0.17864158       0.00000000
Si       1.23847983       1.21280679      -1.66961304       0.00000000
Si      -1.60651980      -1.24115139      -1.39503495       0.00000000
Si      -0.70284834       1.04430303       2.11854891       0.00000000
Si       2.72135853       2.47076946      -0.27295439       0.00000000
Si      -3.18283794       1.85668533      -0.60550203       0.00000000
Si      -0.18792144      -0.69178743       3.67502113       0.00000000
Si      -3.08156301       1.29192732       1.72727167       0.00000000
Si      -2.23844148      -3.04820109      -0.04397810       0.00000000
Si      -0.43733763       2.35856394      -3.09048901       0.00000000
