10
Lattice="16.28999089631971 0.0 0.0 0.0 16.28999089631971 0.0 0.0 0.0 34.54679606040008" Properties=species:S:1:pos:R:3:initial_magmoms:R:1 pbc="T T T"
Si       1.35716877       1.35738054      -1.35689527       0.00000000
Si       1.35710361      -1.35754344       1.35748256       0.00000000
Si      -1.35744570       1.35728280       1.35741347       0.00000000
Si      -1.36041048      -1.35713619      -1.35803531       0.00000000
Si      -2.71090035      -0.00127062      -2.71513786       0.00000000
Si      -2.71379345       0.00068418       2.71385963       0.00000000
Si       0.00070047      -2.71368594       2.71482694       0.00000000
Si       0.00417024       2.71070487      -2.71831617       0.00000000
Si      -0.00087966       2.71435383       2.71482694       0.00000000
Si       2.71503801       0.00141723       2.71448147       0.00000000
