10
Lattice="16.28999089631971 0.0 0.0 0.0 16.28999089631971 0.0 0.0 0.0 34.54679606040008" Properties=species:S:1:pos:R:3:initial_magmoms:R:1 pbc="T T T"
Si       1.35571896       1.35624024      -1.35672253       0.00000000
Si       1.35703845      -1.35690813       1.35720619       0.00000000
Si      -1.35762489       1.35759231       1.35734438       0.00000000
Si      -1.35790182      -1.35783666      -1.35699891       0.00000000
Si      -0.00003258      -2.71379997       2.71437783       0.00000000
Si       0.00060273       2.71381626       2.71451602       0.00000000
Si       2.71459818      -2.71458189      -0.00003455       0.00000000
Si       2.71420722       2.71505430      -0.00034547       0.00000000
Si      -2.71090035      -0.00451233      -2.71841981       0.00000000
Si       2.71345788      -0.00034209       2.71589789       0.00000000
