10
Lattice="16.28999089631971 0.0 0.0 0.0 16.28999089631971 0.0 0.0 0.0 34.54679606040008" Properties=species:S:1:pos:R:3:initial_magmoms:R:1 pbc="T T T"
Si       1.40312286      -1.25304309       1.35364787       0.00000000
Si       1.03136877       1.64730996      -1.31765941       0.00000000
Si      -1.33046946       1.44767601       1.34422350       0.00000000
Si      -0.68256729      -1.87250292      -1.40558352       0.00000000
Si       1.21461498      -0.08477316      -3.09727197       0.00000000
Si      -0.78011181       3.28274451      -1.43861027       0.00000000
Si      -2.63995740      -2.57140093      -0.16171710       0.00000000
Si      -2.67019164       2.62241307      -0.19014567       0.00000000
Si       0.04072500      -2.60786447       2.70398269       0.00000000
Si       2.61798219      -2.70701518      -0.06418107       0.00000000
