10
Lattice="16.28999089631971 0.0 0.0 0.0 16.28999089631971 0.0 0.0 0.0 34.54679606040008" Properties=species:S:1:pos:R:3:initial_magmoms:R:1 pbc="T T T"
Si       1.47279519      -1.14153804      -1.44536966       0.00000000
Si       2.00316501       0.68027270       1.15054714       0.00000000
Si      -1.22670216       1.58126934      -1.40764454       0.00000000
Si      -0.97485876      -1.80084321       1.54545179       0.00000000
Si       2.67887421      -2.53057005      -0.01893165       0.00000000
Si      -2.65469985      -2.62591542      -0.05109474       0.00000000
Si       0.13178610      -2.49258177      -2.79811931       0.00000000
Si      -2.58424560       0.22198383      -2.79006990       0.00000000
Si       1.54425942       0.42440567       3.46148726       0.00000000
Si       2.78958105       2.77070813       0.05071472       0.00000000
