10
Lattice="16.28999089631971 0.0 0.0 0.0 16.28999089631971 0.0 0.0 0.0 34.54679606040008" Properties=species:S:1:pos:R:3:initial_magmoms:R:1 pbc="T T T"
Si      -1.35721764      -1.35685112       1.35658435       0.00000000
Si       1.35718506      -1.35740009      -1.35786258       0.00000000
Si       1.35884664       1.35765747       1.35713709       0.00000000
Si      -1.35821133       1.35790182      -1.35786258       0.00000000
Si       2.71383255       0.00131949       2.71016312       0.00000000
Si      -2.71142163      -0.00461007       2.71683065       0.00000000
Si       0.00237834       2.71261080       2.71589789       0.00000000
Si       2.71417464      -2.71467086      -0.00003455       0.00000000
Si       2.71445157       2.71482624       0.00003455       0.00000000
Si       2.71518462       0.00074934      -2.71434328       0.00000000
