10
Lattice="16.28999089631971 0.0 0.0 0.0 16.28999089631971 0.0 0.0 0.0 34.54679606040008" Properties=species:S:1:pos:R:3:initial_magmoms:R:1 pbc="T T T"
Si       0.45890559       0.25586703      -2.31094012       0.00000000
Si       0.88874982      -1.53562802       1.57730395       0.00000000
Si      -1.99705626       1.04576424       0.98475697       0.00000000
Si       1.20599757       2.17310718      -0.16720659       0.00000000
Si      -0.80215218      -0.23811323       2.65633918       0.00000000
Si      -1.08849780       3.10152315      -0.36785449       0.00000000
Si       2.35318824      -1.21658837      -2.39526890       0.00000000
Si       1.79134614       2.38899855       2.16314884       0.00000000
Si      -1.54425942      -0.42440567      -3.46148726       0.00000000
Si      -2.51911818      -2.22524888      -1.91603547       0.00000000
