10
Lattice="16.28999089631971 0.0 0.0 0.0 16.28999089631971 0.0 0.0 0.0 34.54679606040008" Properties=species:S:1:pos:R:3:initial_magmoms:R:1 pbc="T T T"
Si       1.41530778      -1.18850211      -1.48492576       0.00000000
Si       1.62890226       0.88524747       1.50824487       0.00000000
Si      -1.28324475       1.49607360      -1.48212747       0.00000000
Si      -0.78641604      -2.09043543       1.09983241       0.00000000
Si      -0.03932406      -0.17319528       3.24356595       0.00000000
Si       2.83794606      -2.39617625      -0.03883062       0.00000000
Si       2.65077396       2.69226459      -0.12682136       0.00000000
Si       3.51735309      -0.53853111       1.31084436       0.00000000
Si       0.05893722      -2.55063311      -2.84406658       0.00000000
Si       1.10786661      -3.56289083       1.01550364       0.00000000
