10
Lattice="16.28999089631971 0.0 0.0 0.0 16.28999089631971 0.0 0.0 0.0 34.54679606040008" Properties=species:S:1:pos:R:3:initial_magmoms:R:1 pbc="T T T"
Si       0.93001239      -1.92135663      -1.08490819       0.00000000
Si      -2.37426750      -0.74002212      -0.17784701       0.00000000
Si      -0.30463929       0.32145057       2.59239303       0.00000000
Si       0.07885989       2.10465171      -1.61033070       0.00000000
Si       3.13514082       0.53423055      -0.06308248       0.00000000
Si       2.39477661       2.04786477      -1.76700051       0.00000000
Si      -0.59934168      -2.48523498      -2.81815646       0.00000000
Si      -1.36505313       3.59891712      -0.48897562       0.00000000
Si      -2.24665164       1.93442121       2.60075335       0.00000000
Si      -3.87262170       1.05179643       0.23426196       0.00000000
