10
Lattice="16.28999089631971 0.0 0.0 0.0 16.28999089631971 0.0 0.0 0.0 34.54679606040008" Properties=species:S:1:pos:R:3:initial_magmoms:R:1 pbc="T T T"
Si       1.35718506       1.35707103      -1.35613524       0.00000000
Si      -1.35755973       1.35767376       1.35724074       0.00000000
Si      -1.35780408      -1.35757602      -1.35717164       0.00000000
Si       1.35780408      -1.35798327       1.35737892       0.00000000
Si       2.70915732      -0.00117288      -2.71437783       0.00000000
Si       2.71401174      -0.00130320       2.71475785       0.00000000
Si       2.71448415       2.71450044       0.00024183       0.00000000
Si      -2.71463076       0.00078192       2.71441238       0.00000000
Si      -2.71459818       2.71458189       0.00003455       0.00000000
Si       2.71484253      -2.71503801       0.00013819       0.00000000
