10
Lattice="16.28999089631971 0.0 0.0 0.0 16.28999089631971 0.0 0.0 0.0 34.54679606040008" Properties=species:S:1:pos:R:3:initial_magmoms:R:1 pbc="T T T"
Si      -1.35472527       1.35669636       1.35710255       0.00000000
Si      -1.35620766      -1.35668007      -1.35737892       0.00000000
Si       1.35843939       1.35840681      -1.35727528       0.00000000
Si       1.36117611      -1.35747828       1.35824259       0.00000000
Si      -2.69998605       0.00897579       2.72263452       0.00000000
Si       0.00083079      -2.71373481      -2.71461966       0.00000000
Si      -2.71401174       0.00130320      -2.71475785       0.00000000
Si      -2.71391400      -2.71485882       0.00145097       0.00000000
Si       2.71595025       2.71363707       0.00100186       0.00000000
Si       2.71660185      -2.71322982      -0.00062184       0.00000000
