10
Lattice="16.28999089631971 0.0 0.0 0.0 16.28999089631971 0.0 0.0 0.0 34.54679606040008" Properties=species:S:1:pos:R:3:initial_magmoms:R:1 pbc="T T T"
Si       1.87111827       1.27397574       0.72676135       0.00000000
Si      -1.01188593      -1.13788908       1.82590283       0.00000000
Si       1.02908817      -1.79105292      -1.29429644       0.00000000
Si      -1.63468521       0.89202411      -1.62235300       0.00000000
Si       2.84214888       1.45503909      -1.46095028       0.00000000
Si      -2.34600435      -2.71559187       0.70776061       0.00000000
Si       0.82192824       2.76558588      -2.27691151       0.00000000
Si      -0.74362221      -3.42653634      -1.29965119       0.00000000
Si       0.72804897      -2.54721843       2.80668692       0.00000000
Si       0.19595241      -1.47416355      -3.62682832       0.00000000
