10
Lattice="16.28999089631971 0.0 0.0 0.0 16.28999089631971 0.0 0.0 0.0 34.54679606040008" Properties=species:S:1:pos:R:3:initial_magmoms:R:1 pbc="T T T"
Si      -1.34480466      -1.35102744       1.36895902       0.00000000
Si       1.36792017       1.36581876       1.36522796       0.00000000
Si       1.39797522      -1.32269913      -1.37728825       0.00000000
Si      -1.36171368       1.20081735      -1.56856706       0.00000000
Si       0.51670251       2.25101736      -2.71096603       0.00000000
Si       2.33238591       0.51963471      -2.75715512       0.00000000
Si      -2.70777267       2.70317695      -0.02376475       0.00000000
Si      -2.70920619      -2.71151937      -0.03592178       0.00000000
Si       2.72336220      -2.70485676       0.01807144       0.00000000
Si      -2.70423774       0.00360009       2.72823801       0.00000000
