10
Lattice="16.28999089631971 0.0 0.0 0.0 16.28999089631971 0.0 0.0 0.0 34.54679606040008" Properties=species:S:1:pos:R:3:initial_magmoms:R:1 pbc="T T T"
Si      -0.01303200       2.34463599      -0.44962680       0.00000000
Si       0.61871049      -0.33733332      -2.28340631       0.00000000
Si      -2.26520595      -0.89935461       0.00152006       0.00000000
Si       1.63468521      -0.89202411       1.62235300       0.00000000
Si       2.45661345       1.87356177      -0.65455851       0.00000000
Si      -0.33814782      -3.17224944      -1.51529242       0.00000000
Si       1.83063762      -2.36618766      -2.00447532       0.00000000
Si      -2.56301973      -1.69699446      -2.20881973       0.00000000
Si       2.66377338      -2.68307703       0.32805656       0.00000000
Si       2.38242879       1.20627450      -2.89371035       0.00000000
