10
Lattice="16.28999089631971 0.0 0.0 0.0 16.28999089631971 0.0 0.0 0.0 34.54679606040008" Properties=species:S:1:pos:R:3:initial_magmoms:R:1 pbc="T T T"
Si      -1.35758579       1.35677781      -1.35772439       0.00000000
Si       1.35711990      -1.35796698      -1.35793167       0.00000000
Si       1.35819504       1.35821133       1.35696436       0.00000000
Si      -1.35949172      -1.35812988       1.35734438       0.00000000
Si       2.71459818       2.71435383      -0.00038001       0.00000000
Si       2.71422351      -0.00265527      -2.71493058       0.00000000
Si      -2.71486370       2.71453302      -0.00069094       0.00000000
Si       2.71539639      -0.00151497       2.71448147       0.00000000
Si       2.71477737      -2.71533123      -0.00055275       0.00000000
Si      -2.71594170      -0.00100998      -2.71437783       0.00000000
