10
Lattice="16.28999089631971 0.0 0.0 0.0 16.28999089631971 0.0 0.0 0.0 34.54679606040008" Properties=species:S:1:pos:R:3:initial_magmoms:R:1 pbc="T T T"
Si       2.17219005      -0.24074991       0.86007752       0.00000000
Si      -0.98277570       0.10645515       2.14048613       0.00000000
Si      -1.02366360      -1.92415851      -0.94312806       0.00000000
Si      -0.89208927       1.87652655      -1.15659283       0.00000000
Si       1.59270588      -2.17266246       2.07377623       0.00000000
Si      -0.70418412      -2.18711169       2.76177606       0.00000000
Si      -3.18146958      -0.93662613      -1.44364232       0.00000000
Si      -3.23182197       0.83828340       1.80244554       0.00000000
Si       0.83937483       2.75156151      -2.50992978       0.00000000
Si       2.78891316       1.72252089       2.04361686       0.00000000
