10
Lattice="16.28999089631971 0.0 0.0 0.0 16.28999089631971 0.0 0.0 0.0 34.54679606040008" Properties=species:S:1:pos:R:3:initial_magmoms:R:1 pbc="T T T"
Si       0.18287154      -2.27832659       0.46880028       0.00000000
Si       1.10488554       1.14738615       1.73083000       0.00000000
Si      -2.36848455       0.40368249      -0.12685591       0.00000000
Si       1.42524468      -0.26243190      -2.12732380       0.00000000
Si       3.30003050       0.18173124       1.46882695       0.00000000
Si       0.97904529       3.37923018       0.96561804       0.00000000
Si      -2.95383312       0.18779112      -2.45721134       0.00000000
Si      -3.44891880      -0.90047373       1.56624897       0.00000000
Si       2.88577906       1.65501513      -2.11512877       0.00000000
Si       2.32986096      -3.20926751       0.04290714       0.00000000
