10
Lattice="16.28999089631971 0.0 0.0 0.0 16.28999089631971 0.0 0.0 0.0 34.54679606040008" Properties=species:S:1:pos:R:3:initial_magmoms:R:1 pbc="T T T"
Si      -1.09955871      -1.39387991       1.45225626       0.00000000
Si       0.86353290      -1.62354611      -1.45262449       0.00000000
Si       1.60524918       1.28728467       1.21070838       0.00000000
Si      -1.64905299      -1.02586275      -1.54859555       0.00000000
Si      -2.48008734      -0.00358380       2.78105806       0.00000000
Si      -1.97656344      -3.19366169       0.06850633       0.00000000
Si       2.72820033      -2.64238217      -0.03313040       0.00000000
Si       0.24410565       2.69594613       2.75541741       0.00000000
Si       0.24866685      -2.72561448       2.79914677       0.00000000
Si       3.01079096       2.59555086      -0.31064496       0.00000000
