10
Lattice="16.28999089631971 0.0 0.0 0.0 16.28999089631971 0.0 0.0 0.0 34.54679606040008" Properties=species:S:1:pos:R:3:initial_magmoms:R:1 pbc="T T T"
Si       1.35791811       1.35410625      -1.37071399       0.00000000
Si      -1.35664749      -1.36239786      -1.37019579       0.00000000
Si      -1.20058929       1.49136579       1.38221808       0.00000000
Si       1.23329961      -1.54639341       1.34739489       0.00000000
Si      -2.06229771      -0.20023668       2.81300899       0.00000000
Si       0.42153633       2.56658724       2.70760665       0.00000000
Si       2.71002069       2.71282257      -0.00141642       0.00000000
Si      -2.70324405       2.72056032      -0.00632207       0.00000000
Si       2.70646947      -2.72329704      -0.03053938       0.00000000
Si      -0.00325800       2.71158453      -2.72895659       0.00000000
