10
Lattice="16.28999089631971 0.0 0.0 0.0 16.28999089631971 0.0 0.0 0.0 34.54679606040008" Properties=species:S:1:pos:R:3:initial_magmoms:R:1 pbc="T T T"
Si       1.47316986      -1.17690363      -1.37793428       0.00000000
Si       1.78733880       0.94299552       1.25923142       0.00000000
Si      -1.23329961       1.54639341      -1.34739489       0.00000000
Si      -1.02187170      -1.80701712       1.63506622       0.00000000
Si      -0.14486697       0.16213437       2.80986523       0.00000000
Si       0.86657913      -3.23079570       1.43766572       0.00000000
Si       2.70311373      -2.53853586       0.02815565       0.00000000
Si       0.12150711      -2.52729576      -2.72332546       0.00000000
Si      -2.58994710       0.18399555      -2.71759068       0.00000000
Si      -2.65077396      -2.69226459       0.12682136       0.00000000
