10
Lattice="16.28999089631971 0.0 0.0 0.0 16.28999089631971 0.0 0.0 0.0 34.54679606040008" Properties=species:S:1:pos:R:3:initial_magmoms:R:1 pbc="T T T"
Si      -0.24345405      -2.35261809       0.10149854       0.00000000
Si      -0.40247703       0.81453258       2.21179076       0.00000000
Si       2.39572699       0.25327692      -0.24628425       0.00000000
Si      -1.43027829       1.12143618      -1.63527351       0.00000000
Si       0.97437154       2.69467551       1.88635976       0.00000000
Si       1.09534842      -3.01467627      -1.69092842       0.00000000
Si       2.92297076       1.30038183       1.80773121       0.00000000
Si       3.09059486      -1.93202658      -0.90440108       0.00000000
Si      -2.57334759      -2.69975799       0.44465206       0.00000000
Si      -1.84081887       3.42599877      -1.09357944       0.00000000
