10
Lattice="16.28999089631971 0.0 0.0 0.0 16.28999089631971 0.0 0.0 0.0 34.54679606040008" Properties=species:S:1:pos:R:3:initial_magmoms:R:1 pbc="T T T"
Si      -1.64067993      -1.15095366       1.25819502       0.00000000
Si      -1.28085012       1.27653327      -1.67710970       0.00000000
Si       1.34785971       1.22896647       1.70578356       0.00000000
Si       1.41239417      -1.43967762      -1.67800792       0.00000000
Si       2.63822156       2.60317458      -0.04425447       0.00000000
Si      -2.57513949      -2.68734501      -0.33848970       0.00000000
Si      -2.58308901       2.77735575      -0.26321219       0.00000000
Si       2.74840712      -2.82315474      -0.28186747       0.00000000
Si       0.06529032       2.62262569      -3.06765356       0.00000000
Si      -2.65204458      -0.09096336      -3.06167697       0.00000000
