10
Lattice="16.28999089631971 0.0 0.0 0.0 16.28999089631971 0.0 0.0 0.0 34.54679606040008" Properties=species:S:1:pos:R:3:initial_magmoms:R:1 pbc="T T T"
Si      -1.87111827      -1.27397574      -0.72676135       0.00000000
Si       0.97103061       0.18106335      -2.18771163       0.00000000
Si      -0.41054058       2.30456259       0.54169406       0.00000000
Si       1.43027829      -1.12143618       1.63527351       0.00000000
Si      -1.04919003       1.49161014      -3.00367286       0.00000000
Si      -0.06488307       3.20530185      -1.61724007       0.00000000
Si       2.08210635       2.27436093      -2.04313321       0.00000000
Si      -0.84203010      -3.06502866      -2.02105779       0.00000000
Si       1.62134370       2.96210844       1.71176015       0.00000000
Si      -2.88300420      -2.41186482       1.09914148       0.00000000
