10
Lattice="16.28999089631971 0.0 0.0 0.0 16.28999089631971 0.0 0.0 0.0 34.54679606040008" Properties=species:S:1:pos:R:3:initial_magmoms:R:1 pbc="T T T"
Si      -1.89007983      -0.66033144       1.24846460       0.00000000
Si       1.81148058      -1.63543455       0.12095086       0.00000000
Si       0.74354076       2.07762660       1.23317072       0.00000000
Si      -0.51662106      -1.05243174      -2.35598917       0.00000000
Si      -0.55035765      -1.83506850       2.78283377       0.00000000
Si       2.18745378       0.90414387       2.75661619       0.00000000
Si       0.78011181      -3.28274451       1.43861027       0.00000000
Si      -1.88335695       0.69980211      -3.09238908       0.00000000
Si      -3.19225275      -1.92634137      -0.31423783       0.00000000
Si       3.53509290      -0.53766774       1.33845905       0.00000000
