10
Lattice="16.28999089631971 0.0 0.0 0.0 16.28999089631971 0.0 0.0 0.0 34.54679606040008" Properties=species:S:1:pos:R:3:initial_magmoms:R:1 pbc="T T T"
Si      -1.35735027      -1.35653346       1.35703345       0.00000000
Si       1.35727790      -1.35775521      -1.35703345       0.00000000
Si      -1.35808332       1.35744570      -1.35679163       0.00000000
Si       1.35856481       1.35804843       1.35668799       0.00000000
Si       2.71194779       0.00022806      -2.71520695       0.00000000
Si      -0.00036203       2.71401174      -2.71465420       0.00000000
Si      -2.71277601      -0.00078192       2.71589789       0.00000000
Si      -0.00107801      -2.71554300      -2.71368689       0.00000000
Si       2.71486370      -2.71453302       0.00069094       0.00000000
Si      -2.71476339       0.00187335      -2.71475785       0.00000000
