10
Lattice="16.28999089631971 0.0 0.0 0.0 16.28999089631971 0.0 0.0 0.0 34.54679606040008" Properties=species:S:1:pos:R:3:initial_magmoms:R:1 pbc="T T T"
Si      -1.34372952      -1.36414089      -1.38688190       0.00000000
Si       1.37179719       1.35097857      -1.38695100       0.00000000
Si       1.30134294      -1.49692068       1.35202417       0.00000000
Si      -1.48511043       1.32934545       1.63396073       0.00000000
Si      -2.70403574       2.69704312       0.00096731       0.00000000
Si      -2.71093782      -2.71350675       0.00020728       0.00000000
Si       2.72934063       2.71026408      -0.00452563       0.00000000
Si      -2.69879688      -0.00918756      -2.74958104       0.00000000
Si       0.01526373       2.70391587      -2.74999560       0.00000000
Si       0.01528002      -2.72502378      -2.74933921       0.00000000
