10
Lattice="16.28999089631971 0.0 0.0 0.0 16.28999089631971 0.0 0.0 0.0 34.54679606040008" Properties=species:S:1:pos:R:3:initial_magmoms:R:1 pbc="T T T"
Si      -0.50843601      -1.01014290       2.06109755       0.00000000
Si      -1.41305229       1.93669271      -0.10913339       0.00000000
Si       1.01608875      -1.38445452      -1.75242176       0.00000000
Si       1.61498897       2.94975152       1.38263264       0.00000000
Si      -2.65542543      -0.07920198       2.48699069       0.00000000
Si      -2.23545294       2.02157990      -2.37174252       0.00000000
Si       0.04748209       3.85413974      -0.09693836       0.00000000
Si       2.80288835      -2.79296937      -0.37106734       0.00000000
Si       0.49363098       0.02443600       3.94410627       0.00000000
Si      -1.61951175      -3.10344048       1.91651913       0.00000000
