10
Lattice="10.86 0.0 0.0 0.0 10.86 0.0 0.0 0.0 10.86" Properties=species:S:1:pos:R:3:initial_magmoms:R:1 pbc="T T T"
Si       1.25488386      -1.24707552      -1.36541694       0.00000000
Si      -1.46011614      -1.24707552       1.34958306       0.00000000
Si       1.55597736       1.35485016       1.22416092       0.00000000
Si      -1.46011614       1.46792448      -1.36541694       0.00000000
Si       2.61238386      -2.60457552      -0.00791694       0.00000000
Si      -0.10261614      -2.60457552       2.70708306       0.00000000
Si      -0.10261614      -2.60457552      -2.72291694       0.00000000
Si      -2.81761614      -2.60457552      -0.00791694       0.00000000
Si       0.24284046       2.84272446       2.62135422       0.00000000
Si      -2.81761614       0.11042448       2.70708306       0.00000000
