10
Lattice="10.86 0.0 0.0 0.0 10.86 0.0 0.0 0.0 10.86" Properties=species:S:1:pos:R:3:initial_magmoms:R:1 pbc="T T T"
Si       1.01204340       1.34020002       1.44322884       0.00000000
Si       1.31313690      -1.48787430      -1.39719330       0.00000000
Si      -1.70295660       1.34020002      -1.27177116       0.00000000
Si      -1.70295660      -1.37479998       1.44322884       0.00000000
Si      -0.21664614       2.53441992      -2.61093948       0.00000000
Si       2.36954340      -0.01729998       2.80072884       0.00000000
Si       2.48979618       2.70202230       0.18296928       0.00000000
Si       2.54412876      -2.72612064       0.29744454       0.00000000
Si      -0.24284046      -2.84272446      -2.62135422       0.00000000
Si      -0.34545660       2.69770002       2.80072884       0.00000000
