10
Lattice="10.86 0.0 0.0 0.0 10.86 0.0 0.0 0.0 10.86" Properties=species:S:1:pos:R:3:initial_magmoms:R:1 pbc="T T T"
Si      -1.38100104      -1.17329268       1.32963324       0.00000000
Si       1.33399896      -1.17329268      -1.38536676       0.00000000
Si       1.33399896       1.54170732       1.32963324       0.00000000
Si      -2.56391568      -2.52461334       0.18384894       0.00000000
Si       0.00271500      -2.64243348      -2.53785168       0.00000000
Si      -0.02350104      -2.53079268       2.68713324       0.00000000
Si       2.69149896      -2.53079268      -0.02786676       0.00000000
Si       2.69149896       0.18420732       2.68713324       0.00000000
Si      -2.73850104       0.18420732       2.68713324       0.00000000
Si       2.69149896       0.18420732      -2.74286676       0.00000000
