10
Lattice="10.86 0.0 0.0 0.0 10.86 0.0 0.0 0.0 10.86" Properties=species:S:1:pos:R:3:initial_magmoms:R:1 pbc="T T T"
Si      -1.41852234       1.23351138      -1.17670272       0.00000000
Si       1.29647766      -1.48148862      -1.17670272       0.00000000
Si       1.28947296       1.41067056       1.52778480       0.00000000
Si      -1.41852234      -1.48148862       1.53829728       0.00000000
Si      -0.09861966       2.67846696      -2.37295344       0.00000000
Si       2.86223988      -0.15534144      -2.35340544       0.00000000
Si       2.55287106      -0.23258862       2.68040004       0.00000000
Si      -0.02009100       2.38228218       2.86494402       0.00000000
Si      -2.77602234      -0.12398862      -2.53420272       0.00000000
Si      -2.77602234       2.59101138       0.18079728       0.00000000
