10
Lattice="10.86 0.0 0.0 0.0 10.86 0.0 0.0 0.0 10.86" Properties=species:S:1:pos:R:3:initial_magmoms:R:1 pbc="T T T"
Si      -1.30956396       0.97161162       1.33715922       0.00000000
Si       1.26339810      -1.64325918       1.15261524       0.00000000
Si      -1.28947296      -1.41067056      -1.52778480       0.00000000
Si      -2.70799530       2.53784082       0.01051248       0.00000000
Si       0.00700470       2.53784082       2.72551248       0.00000000
Si      -2.70799530      -0.17715918      -2.70448752       0.00000000
Si      -2.70799530      -0.17715918       2.72551248       0.00000000
Si       2.72200470      -0.17715918       2.72551248       0.00000000
Si       0.00700470      -2.89215918      -2.70448752       0.00000000
Si      -2.70799530      -2.89215918       0.01051248       0.00000000
