10
Lattice="10.86 0.0 0.0 0.0 10.86 0.0 0.0 0.0 10.86" Properties=species:S:1:pos:R:3:initial_magmoms:R:1 pbc="T T T"
Si       1.19677200       1.25269014       1.34942016       0.00000000
Si      -1.51822800       1.25269014      -1.36557984       0.00000000
Si      -1.51822800      -1.46230986       1.34942016       0.00000000
Si       2.55427200       2.61019014      -0.00807984       0.00000000
Si       2.55427200      -0.10480986       2.70692016       0.00000000
Si      -0.16072800       2.61019014       2.70692016       0.00000000
Si      -0.16072800       2.61019014      -2.72307984       0.00000000
Si      -2.87572800       2.61019014      -0.00807984       0.00000000
Si      -0.16072800      -2.81980986       2.70692016       0.00000000
Si      -2.87572800      -0.10480986       2.70692016       0.00000000
