10
Lattice="16.28999089631971 0.0 0.0 0.0 16.28999089631971 0.0 0.0 0.0 34.53561885213415" Properties=species:S:1:pos:R:3:initial_magmoms:R:1 pbc="T T T"
Si      -1.35747828       1.35661165       1.35697429       0.00000000
Si       1.35672894      -1.35732859       1.35700883       0.00000000
Si       1.35689184       1.35791485      -1.35655987       0.00000000
Si      -1.35816246      -1.35779801      -1.35780315       0.00000000
Si       0.00164529       2.71208626      -2.71273984       0.00000000
Si       2.71290402       0.00046752       2.71408673       0.00000000
Si       0.00094482       2.71340575       2.71439755       0.00000000
Si      -2.71435383       0.00068092       2.71429394       0.00000000
Si      -2.71384884       0.00299899      -2.71481198       0.00000000
Si       2.71469592       2.71474153       0.00041443       0.00000000
