10
Lattice="16.28999089631971 0.0 0.0 0.0 16.28999089631971 0.0 0.0 0.0 34.53561885213415" Properties=species:S:1:pos:R:3:initial_magmoms:R:1 pbc="T T T"
Si      -0.68584158       1.87782486       1.21589621       0.00000000
Si      -1.05948531      -1.85839156       0.97487199       0.00000000
Si       2.34926235      -0.16785542       0.04448190       0.00000000
Si      -0.75580713       0.10715399      -2.26688475       0.00000000
Si       0.75082239      -1.56500866      -2.90009568       0.00000000
Si       2.83962393       2.06630016       0.40731332       0.00000000
Si       1.35788553       2.41168074       2.23017337       0.00000000
Si      -1.30833135       3.26657994      -0.54832233       0.00000000
Si      -3.06012537      -0.88159429       1.60911899       0.00000000
Si       2.80966662      -0.71672320      -2.14839298       0.00000000
