10
Lattice="16.28999089631971 0.0 0.0 0.0 16.28999089631971 0.0 0.0 0.0 34.53561885213415" Properties=species:S:1:pos:R:3:initial_magmoms:R:1 pbc="T T T"
Si      -1.45143804       1.26328950      -1.42974088       0.00000000
Si       1.28540969      -1.44481549      -1.42832492       0.00000000
Si      -1.07554629      -1.89957364       1.02021729       0.00000000
Si       1.43255726       1.18534185       1.58294097       0.00000000
Si       2.60816747       2.53374660       0.05194160       0.00000000
Si      -0.08614056       2.61874782      -2.80947416       0.00000000
Si       2.61510700      -2.81693485       0.08727156       0.00000000
Si       2.62996349      -0.10539630      -2.80826542       0.00000000
Si      -3.02469366       2.50703100      -0.05784719       0.00000000
Si      -2.79865362      -0.10349037      -2.80588246       0.00000000
