10
Lattice="16.28999089631971 0.0 0.0 0.0 16.28999089631971 0.0 0.0 0.0 34.53561885213415" Properties=species:S:1:pos:R:3:initial_magmoms:R:1 pbc="T T T"
Si      -2.26497789       0.10994121      -1.25906576       0.00000000
Si      -1.85785821       1.89214866       0.53181429       0.00000000
Si      -2.05765506      -1.07900073       1.75099139       0.00000000
Si       0.61136370       2.61144990      -1.16505975       0.00000000
Si       0.63669465      -2.56349214      -1.33442252       0.00000000
Si       2.54694150      -1.65978810      -0.09424776       0.00000000
Si      -0.79115643      -1.25519337      -2.70089412       0.00000000
Si       2.51017497      -0.48809727       2.04171239       0.00000000
Si       1.94496084       1.43824410      -2.71222181       0.00000000
Si       3.35279151       0.05611905      -1.43492123       0.00000000
