10
Lattice="16.28999089631971 0.0 0.0 0.0 16.28999089631971 0.0 0.0 0.0 34.53561885213415" Properties=species:S:1:pos:R:3:initial_magmoms:R:1 pbc="T T T"
Si      -1.28803401       1.00418076      -1.68154022       0.00000000
Si      -0.85331907      -0.20238696       2.18375747       0.00000000
Si       2.37426750      -0.12070890      -0.14273579       0.00000000
Si      -0.73738314      -2.23508574      -0.39999176       0.00000000
Si      -0.83349414      -2.65667094       1.89300193       0.00000000
Si       0.11446983       0.82476270      -3.58100032       0.00000000
Si      -1.44174645       3.25286865      -1.04777673       0.00000000
Si       2.94407541      -2.18799135       0.84933495       0.00000000
Si      -3.43964979      -0.03249855      -1.54705845       0.00000000
Si       0.88470990      -0.39276819       3.70446523       0.00000000
