10
Lattice="16.28999089631971 0.0 0.0 0.0 16.28999089631971 0.0 0.0 0.0 34.53561885213415" Properties=species:S:1:pos:R:3:initial_magmoms:R:1 pbc="T T T"
Si      -0.76105251      -2.18776329      -0.01826935       0.00000000
Si       2.21372955       0.22214673      -0.76268503       0.00000000
Si       0.11437209       0.98662014       2.14922183       0.00000000
Si      -0.92338236       1.56623463      -1.59837840       0.00000000
Si       1.09216305       2.91372714       1.25305656       0.00000000
Si      -0.87625539       3.35072268      -0.04848804       0.00000000
Si      -2.49908148      -1.99738206      -1.53897711       0.00000000
Si       2.06457831      -0.15441291      -3.09093961       0.00000000
Si       2.92537449       2.44978794      -0.10654244       0.00000000
Si       0.59236956       1.64665836      -3.47915472       0.00000000
