10
Lattice="16.28999089631971 0.0 0.0 0.0 16.28999089631971 0.0 0.0 0.0 34.53561885213415" Properties=species:S:1:pos:R:3:initial_magmoms:R:1 pbc="T T T"
Si      -0.87788439       0.77911812       2.05839311       0.00000000
Si      -0.74704311      -2.19994821       0.47586656       0.00000000
Si      -1.46344473       0.63842139      -1.77475191       0.00000000
Si       2.14047342       1.15100253      -0.07660005       0.00000000
Si      -1.03966038      -2.82685257      -1.74208120       0.00000000
Si      -0.46297809       3.04572501       1.86495900       0.00000000
Si       1.41499827       3.38121756       0.32808856       0.00000000
Si      -2.81965239      -1.33802802      -2.09082207       0.00000000
Si       1.00160694      -3.40733532       1.35331352       0.00000000
Si       0.82295451      -2.17412856      -3.03312696       0.00000000
