10
Lattice="16.28999089631971 0.0 0.0 0.0 16.28999089631971 0.0 0.0 0.0 34.53561885213415" Properties=species:S:1:pos:R:3:initial_magmoms:R:1 pbc="T T T"
Si       1.35690813       1.35769005       1.35801036       0.00000000
Si      -1.35736425       1.35721764      -1.35832118       0.00000000
Si       1.35746199      -1.35772263      -1.35807943       0.00000000
Si      -1.35812988      -1.35865116       1.35832118       0.00000000
Si       2.71489140      -0.00019548       2.71356870       0.00000000
Si       2.71399545      -0.00133578      -2.71508826       0.00000000
Si      -2.71482624       2.71428867       0.00013814       0.00000000
Si      -0.00040725       2.71420722      -2.71581351       0.00000000
Si       2.71523349       2.71480995       0.00003454       0.00000000
Si      -2.71521720      -0.00047241      -2.71484652       0.00000000
