10
Lattice="16.28999089631971 0.0 0.0 0.0 16.28999089631971 0.0 0.0 0.0 34.53561885213415" Properties=species:S:1:pos:R:3:initial_magmoms:R:1 pbc="T T T"
Si      -0.71007621       0.16309385      -2.21155866       0.00000000
Si      -1.41909276      -1.71894102       0.88262730       0.00000000
Si      -0.55518926       2.20964402       0.75228981       0.00000000
Si       2.37982239      -0.08306955      -0.33623897       0.00000000
Si       1.27808082      -1.55780034       2.70572911       0.00000000
Si       0.61038630       2.25383879      -2.51871863       0.00000000
Si      -0.34960295      -2.39377056      -2.58077917       0.00000000
Si      -3.46287023      -0.59247123       0.58624246       0.00000000
Si       0.90429048       3.58166927      -0.51813818       0.00000000
Si       2.75353128       1.22634867      -2.30480488       0.00000000
