10
Lattice="16.28999089631971 0.0 0.0 0.0 16.28999089631971 0.0 0.0 0.0 34.53561885213415" Properties=species:S:1:pos:R:3:initial_magmoms:R:1 pbc="T T T"
Si       1.34332227       1.36238157      -1.38829812       0.00000000
Si      -1.37116188      -1.34889345      -1.38950687       0.00000000
Si      -1.32766758       1.45466442       1.37783382       0.00000000
Si       1.37531583      -1.54647486       1.51918819       0.00000000
Si      -2.36781666      -0.05988204       2.96978860       0.00000000
Si       2.70065394       2.71616202       0.00255564       0.00000000
Si       2.70891297      -2.71968066      -0.02797387       0.00000000
Si      -2.74059702      -2.69311167      -0.02659244       0.00000000
Si       2.70177795       0.00648342      -2.74851876       0.00000000
Si      -0.01464471      -2.70819621      -2.74762084       0.00000000
