10
Lattice="16.28999089631971 0.0 0.0 0.0 16.28999089631971 0.0 0.0 0.0 34.53561885213415" Properties=species:S:1:pos:R:3:initial_magmoms:R:1 pbc="T T T"
Si      -1.23957126       1.35487188      -1.45177462       0.00000000
Si      -1.66706973      -1.00885599       1.40528965       0.00000000
Si       1.47382146      -1.36513458      -1.44182836       0.00000000
Si       0.40711968       1.78220745       1.79088005       0.00000000
Si       2.26497789      -0.10994121       1.25906576       0.00000000
Si       0.20732283      -1.18894194       3.01005715       0.00000000
Si      -2.54708811       2.67056631       0.08630456       0.00000000
Si       2.87634159       2.50150869       0.09400601       0.00000000
Si      -2.58545106      -0.01448181      -2.81372205       0.00000000
Si      -2.60628597      -2.81383686       0.04499994       0.00000000
