10
Lattice="16.28999089631971 0.0 0.0 0.0 16.28999089631971 0.0 0.0 0.0 34.53561885213415" Properties=species:S:1:pos:R:3:initial_magmoms:R:1 pbc="T T T"
Si      -0.98942202      -1.73372841       1.15794541       0.00000000
Si      -1.17120213       0.76103622      -1.85204267       0.00000000
Si       1.04785425       1.77155379       1.09087720       0.00000000
Si       1.76994108      -1.13885019      -1.01876679       0.00000000
Si      -2.25096849      -1.35837423      -2.08218816       0.00000000
Si       2.74773204       0.78825681      -1.91493206       0.00000000
Si       0.77931360       1.22525235      -3.21647666       0.00000000
Si       2.66048280      -2.17161990       0.90770018       0.00000000
Si      -1.60583562      -3.11236740      -0.63372896       0.00000000
Si       0.78250644      -2.50711245       2.44457061       0.00000000
