10
Lattice="16.28999089631971 0.0 0.0 0.0 16.28999089631971 0.0 0.0 0.0 34.53561885213415" Properties=species:S:1:pos:R:3:initial_magmoms:R:1 pbc="T T T"
Si       1.35728280      -1.35676152       1.35697429       0.00000000
Si      -1.35708732       1.35834939       1.35707790       0.00000000
Si       1.35698958       1.35791833      -1.35807943       0.00000000
Si      -1.35961227      -1.35653346      -1.35700883       0.00000000
Si      -2.71462587      -0.00179190      -2.71301613       0.00000000
Si       2.71441899       0.00016290       2.71374137       0.00000000
Si      -2.71489140       0.00071676       2.71387952       0.00000000
Si      -2.71473664      -2.71423980      -0.00041443       0.00000000
Si      -0.00100998      -2.71544526       2.71429394       0.00000000
Si      -2.71477574       2.71522439       0.00006907       0.00000000
