10
Lattice="16.28999089631971 0.0 0.0 0.0 16.28999089631971 0.0 0.0 0.0 34.53561885213415" Properties=species:S:1:pos:R:3:initial_magmoms:R:1 pbc="T T T"
Si       1.35713619       1.35692442       1.35676708       0.00000000
Si      -1.35728280       1.35676152      -1.35697429       0.00000000
Si       1.35811359      -1.35790182      -1.35725058       0.00000000
Si      -1.35829278      -1.35868374       1.35731965       0.00000000
Si       2.71422351      -0.00179190      -2.71353416       0.00000000
Si       0.00047241      -2.71278999       2.71664237       0.00000000
Si      -2.71437012       2.71511091       0.00010361       0.00000000
Si      -0.00029322       2.71467985      -2.71505373       0.00000000
Si       2.71459818       2.71514928      -0.00024175       0.00000000
Si      -2.71474479      -2.71549413       0.00065618       0.00000000
