10
Lattice="16.28999089631971 0.0 0.0 0.0 16.28999089631971 0.0 0.0 0.0 34.53561885213415" Properties=species:S:1:pos:R:3:initial_magmoms:R:1 pbc="T T T"
Si       1.35610992       1.35610992      -1.35628358       0.00000000
Si       1.35720135      -1.35707103       1.35780315       0.00000000
Si      -1.35811359       1.35790182       1.35725058       0.00000000
Si      -1.35843939      -1.35767376      -1.35804490       0.00000000
Si       0.00579924       2.70878265      -2.71729855       0.00000000
Si       2.71394658      -2.71445157      -0.00006907       0.00000000
Si      -0.00097740       2.71482624       2.71401766       0.00000000
Si       2.71298547       0.00355122      -2.71602073       0.00000000
Si       2.71464705       2.71445157      -0.00058711       0.00000000
Si      -0.00112401      -2.71419093       2.71577898       0.00000000
