10
Lattice="16.28999089631971 0.0 0.0 0.0 16.28999089631971 0.0 0.0 0.0 34.53561885213415" Properties=species:S:1:pos:R:3:initial_magmoms:R:1 pbc="T T T"
Si      -1.50961059       1.54008918       0.96150670       0.00000000
Si      -1.62018711      -1.84262706       0.37799256       0.00000000
Si       2.06492040      -0.12621492       1.44103404       0.00000000
Si       0.43565976       0.81261036      -2.34873422       0.00000000
Si      -0.40786902       3.01481997      -2.08046138       0.00000000
Si      -0.38271726       3.27506282       1.88454070       0.00000000
Si       1.85859126      -2.14021278       2.59493878       0.00000000
Si       0.73995696       3.80750961      -0.12557158       0.00000000
Si      -2.97284844      -1.13072148       2.26446726       0.00000000
Si      -0.46271745      -3.92639499       0.26233271       0.00000000
