10
Lattice="16.28999089631971 0.0 0.0 0.0 16.28999089631971 0.0 0.0 0.0 34.53561885213415" Properties=species:S:1:pos:R:3:initial_magmoms:R:1 pbc="T T T"
Si      -2.00064006       0.97679727       0.63424699       0.00000000
Si       1.05948531       1.85839156      -0.97487199       0.00000000
Si      -0.70915257      -1.58755824      -1.67584184       0.00000000
Si       1.17328725      -0.41550903       2.13191948       0.00000000
Si       1.34641737      -1.76184495      -2.86977339       0.00000000
Si      -1.48897116       3.08349242       1.53206998       0.00000000
Si      -0.91548171      -3.60155610      -0.52193710       0.00000000
Si       0.37364373       3.73621643       0.24102422       0.00000000
Si       0.30367818       1.96554555      -3.24175675       0.00000000
Si      -3.15679023       1.81371950      -1.23233518       0.00000000
