10
Lattice="16.28999089631971 0.0 0.0 0.0 16.28999089631971 0.0 0.0 0.0 34.53561885213415" Properties=species:S:1:pos:R:3:initial_magmoms:R:1 pbc="T T T"
Si       2.00064006      -0.97679727      -0.63424699       0.00000000
Si      -1.33553565      -1.36220238       1.33324831       0.00000000
Si       0.51166890       2.10669515       0.89782299       0.00000000
Si      -1.15615017       0.83692223      -1.86658217       0.00000000
Si       3.06012537       0.88159429      -1.60911899       0.00000000
Si      -2.86101270       0.22745727       2.22944812       0.00000000
Si       2.37428379       2.75941916      -0.39322278       0.00000000
Si       1.29148749      -2.56435551      -2.31008884       0.00000000
Si      -2.28304350      -0.89805141      -2.78961617       0.00000000
Si       3.17392731      -1.39230630       1.49767248       0.00000000
