10
Lattice="16.28999089631971 0.0 0.0 0.0 16.28999089631971 0.0 0.0 0.0 34.53561885213415" Properties=species:S:1:pos:R:3:initial_magmoms:R:1 pbc="T T T"
Si      -1.97252352      -1.28212074      -0.30854139       0.00000000
Si       0.57182787      -1.09724553       2.04416442       0.00000000
Si       0.55799766       2.27279939       0.48871382       0.00000000
Si       1.17898875      -0.64571931      -2.00683140       0.00000000
Si      -0.64123956      -3.28546494      -0.35333411       0.00000000
Si       1.38489435      -2.90919852      -1.53193184       0.00000000
Si       3.20647473       0.43945533      -1.54923419       0.00000000
Si      -1.19065239       3.48018650      -0.38873314       0.00000000
Si       2.51128269       2.62843778      -0.91764644       0.00000000
Si       0.10803528      -3.43671759       1.87763358       0.00000000
