10
Lattice="16.28999089631971 0.0 0.0 0.0 16.28999089631971 0.0 0.0 0.0 34.53561885213415" Properties=species:S:1:pos:R:3:initial_magmoms:R:1 pbc="T T T"
Si       1.35886293       1.35505107       1.35725058       0.00000000
Si       1.35710361      -1.35739683      -1.35673254       0.00000000
Si      -1.35664749      -1.35873261       1.35725058       0.00000000
Si      -1.35791811       1.35786924      -1.35745779       0.00000000
Si       2.71197549       0.00187335       2.71118574       0.00000000
Si      -0.00070047      -2.71422351      -2.71370684       0.00000000
Si      -0.00138465       2.71425609      -2.71446662       0.00000000
Si      -0.00037467      -2.71567332       2.71381045       0.00000000
Si       2.71459818       2.71494027      -0.00044896       0.00000000
Si       2.71474479      -2.71482624      -0.00037989       0.00000000
