10
Lattice="16.28999089631971 0.0 0.0 0.0 16.28999089631971 0.0 0.0 0.0 34.53561885213415" Properties=species:S:1:pos:R:3:initial_magmoms:R:1 pbc="T T T"
Si       1.36650294       1.34255664       1.33000196       0.00000000
Si      -1.35311256       1.35317772      -1.35393516       0.00000000
Si      -1.34744364      -1.35891180       1.36046239       0.00000000
Si       1.35995436      -1.35651717      -1.35307177       0.00000000
Si       2.49401529      -0.10893123       2.75546043       0.00000000
Si       0.06094089       2.67779907       2.64439381       0.00000000
Si      -2.65515597       0.05818788       2.74489252       0.00000000
Si      -2.71197549      -0.00187335      -2.71118574       0.00000000
Si       0.00262269       2.71306692      -2.71163470       0.00000000
Si      -2.71246419       2.71352304       0.00300460       0.00000000
