10
Lattice="16.28999089631971 0.0 0.0 0.0 16.28999089631971 0.0 0.0 0.0 34.53561885213415" Properties=species:S:1:pos:R:3:initial_magmoms:R:1 pbc="T T T"
Si      -1.30556205       1.33524243       1.31439185       0.00000000
Si       1.12751235      -1.45148787       1.42545846       0.00000000
Si      -1.36650294      -1.34255664      -1.33000196       0.00000000
Si       1.35151614       1.37024964      -1.32437265       0.00000000
Si       1.87012458       0.43150581       2.66086731       0.00000000
Si      -2.11141206      -0.38066472       2.65506533       0.00000000
Si       0.32452938       2.35877571       2.57860342       0.00000000
Si      -0.60763329      -2.23827858       2.99648464       0.00000000
Si      -0.00654858      -2.69907381      -2.68307373       0.00000000
Si       2.70857088       0.01330893      -2.68417887       0.00000000
