10
Lattice="16.28999089631971 0.0 0.0 0.0 16.28999089631971 0.0 0.0 0.0 34.53561885213415" Properties=species:S:1:pos:R:3:initial_magmoms:R:1 pbc="T T T"
Si      -0.80941752      -2.20177269      -0.22054459       0.00000000
Si      -1.53562572       0.58950252       1.72170517       0.00000000
Si       0.46628496       1.51835832      -1.81104886       0.00000000
Si       2.34623241      -0.67189734       0.33216377       0.00000000
Si       0.67232088      -2.54715327      -2.04340464       0.00000000
Si       0.02127474       0.44009064       3.47349088       0.00000000
Si       2.11188447       2.93607702      -0.87907013       0.00000000
Si       2.93267241      -2.06404074      -1.47052747       0.00000000
Si      -0.72120717      -3.61319693       1.74525847       0.00000000
Si       1.86435792      -1.04744700       3.48506032       0.00000000
