10
Lattice="16.28999089631971 0.0 0.0 0.0 16.28999089631971 0.0 0.0 0.0 34.53561885213415" Properties=species:S:1:pos:R:3:initial_magmoms:R:1 pbc="T T T"
Si      -1.05893145      -1.98338895       0.67862529       0.00000000
Si       2.26747026      -0.27554535       0.57691784       0.00000000
Si      -0.26565732       1.56038652       1.76145569       0.00000000
Si      -0.70947837       0.46664334      -2.30694609       0.00000000
Si       1.76673195       0.68207859       2.70731775       0.00000000
Si      -2.65911444      -1.54611648      -1.92491286       0.00000000
Si       0.19823301       3.61561437       0.75626140       0.00000000
Si       3.46165758       1.46364021      -0.49921265       0.00000000
Si       0.41327730      -3.78446022       1.06684040       0.00000000
Si      -1.80235818       2.74240521      -2.31005430       0.00000000
