10
Lattice="16.28999089631971 0.0 0.0 0.0 16.28999089631971 0.0 0.0 0.0 34.53561885213415" Properties=species:S:1:pos:R:3:initial_magmoms:R:1 pbc="T T T"
Si      -1.35031068       1.35267273      -1.36101496       0.00000000
Si      -1.35610992      -1.35610992       1.35628358       0.00000000
Si       1.35687555      -1.35255870      -1.35973715       0.00000000
Si       1.35853713       1.35834165       1.35569648       0.00000000
Si       0.00109143      -2.71318095       2.71408673       0.00000000
Si      -2.71422351       0.00179190       2.71353416       0.00000000
Si      -2.71454931      -2.71378368      -0.00176132       0.00000000
Si       2.71603170       0.00127062       2.71336148       0.00000000
Si       2.71557558      -2.71420722      -0.00103607       0.00000000
Si       0.00037467       2.71694118       2.71329241       0.00000000
