10
Lattice="16.28999089631971 0.0 0.0 0.0 16.28999089631971 0.0 0.0 0.0 34.53561885213415" Properties=species:S:1:pos:R:3:initial_magmoms:R:1 pbc="T T T"
Si       0.20590560      -2.26347921       0.47489956       0.00000000
Si       2.02748598       1.08517464       0.45759721       0.00000000
Si      -1.17898875       0.64571931       2.00683140       0.00000000
Si      -1.17328725       0.41550903      -2.13191948       0.00000000
Si      -1.82022831      -2.63974563       1.65349728       0.00000000
Si      -3.15151227      -0.63640143       1.69829001       0.00000000
Si       1.33229394       3.27415709       1.08918496       0.00000000
Si      -3.17392731       1.39230630      -1.49767248       0.00000000
Si      -0.11380194       2.27390059      -3.10679147       0.00000000
Si      -0.12035052      -3.62304261      -1.35231198       0.00000000
