10
Lattice="16.28999089631971 0.0 0.0 0.0 16.28999089631971 0.0 0.0 0.0 34.53561885213415" Properties=species:S:1:pos:R:3:initial_magmoms:R:1 pbc="T T T"
Si       1.52503722       0.52080759      -1.67017800       0.00000000
Si      -2.02748598      -1.08517464      -0.45759721       0.00000000
Si      -0.69519204       2.18898245       0.63158775       0.00000000
Si       1.71597231      -0.92352897       1.39834799       0.00000000
Si       1.43260776       2.68114571       1.43461041       0.00000000
Si      -3.20647473      -0.43945533       1.54923419       0.00000000
Si       2.69327457       2.37463307      -0.56040980       0.00000000
Si       0.20797443       1.02087054      -3.51990678       0.00000000
Si       2.23430382       0.94906259       2.80367218       0.00000000
Si      -2.64847707       1.83334406       2.03794801       0.00000000
