10
Lattice="16.28999089631971 0.0 0.0 0.0 16.28999089631971 0.0 0.0 0.0 34.53561885213415" Properties=species:S:1:pos:R:3:initial_magmoms:R:1 pbc="T T T"
Si      -1.33188669      -1.34546089      -1.38671984       0.00000000
Si      -1.35164646       1.35582973       1.35935725       0.00000000
Si       1.36438631      -1.35830879       1.35835572       0.00000000
Si       1.35719925       1.35490120      -1.37790980       0.00000000
Si       2.62166277      -0.21227988      -2.66683852       0.00000000
Si      -2.70467757       2.71205368       0.00231389       0.00000000
Si      -2.70977634      -0.00099532       2.71584805       0.00000000
Si       0.00478926       2.71358494       2.71640062       0.00000000
Si      -2.71243161      -2.71889289      -0.00404067       0.00000000
Si       0.00565263      -2.71729647       2.71512280       0.00000000
