10
Lattice="16.28999089631971 0.0 0.0 0.0 16.28999089631971 0.0 0.0 0.0 34.53561885213415" Properties=species:S:1:pos:R:3:initial_magmoms:R:1 pbc="T T T"
Si       1.35682668       1.35776176       1.35714697       0.00000000
Si       1.35713619      -1.35734860      -1.35763047       0.00000000
Si      -1.35736425      -1.35773956       1.35745779       0.00000000
Si      -1.35829278       1.35895256      -1.35690522       0.00000000
Si       0.00200367      -2.71440334       2.71301613       0.00000000
Si       2.71389025      -2.71401238       0.00065618       0.00000000
Si      -0.00162900      -2.71448479      -2.71460477       0.00000000
Si      -0.00016290       2.71577761      -2.71339602       0.00000000
Si      -2.71559187      -2.71456624       0.00003454       0.00000000
Si       2.71511833       2.71510972       0.00006907       0.00000000
