10
Lattice="16.28999089631971 0.0 0.0 0.0 16.28999089631971 0.0 0.0 0.0 34.53561885213415" Properties=species:S:1:pos:R:3:initial_magmoms:R:1 pbc="T T T"
Si       1.35705474       1.35671265       1.35863200       0.00000000
Si      -1.35738217       1.35775521      -1.35756140       0.00000000
Si       1.35782037      -1.35755973      -1.35745779       0.00000000
Si      -1.35799956      -1.35842310       1.35797583       0.00000000
Si       2.71425609      -0.00255753      -2.71491559       0.00000000
Si      -2.71446411       2.71482624      -0.00027629       0.00000000
Si      -0.00003258       2.71489140      -2.71453569       0.00000000
Si      -2.71488230       0.00443088       2.71470837       0.00000000
Si      -2.71392231      -2.71568961      -0.00034536       0.00000000
Si       2.71547784      -0.00133578       2.71439755       0.00000000
