10
Lattice="16.28999089631971 0.0 0.0 0.0 16.28999089631971 0.0 0.0 0.0 34.53561885213415" Properties=species:S:1:pos:R:3:initial_magmoms:R:1 pbc="T T T"
Si      -1.35708194       1.35707103       1.35728512       0.00000000
Si       1.35734959       1.35713619      -1.35697429       0.00000000
Si       1.35738217      -1.35775521       1.35756140       0.00000000
Si      -1.35890107      -1.35795069      -1.35725058       0.00000000
Si      -2.71445713       0.00043983      -2.71401766       0.00000000
Si      -0.00126573       2.71440270       2.71453569       0.00000000
Si      -2.71499470      -0.00024435       2.71425941       0.00000000
Si      -2.71512502       2.71448415       0.00013814       0.00000000
Si       2.71520254       2.71482624      -0.00044896       0.00000000
Si      -2.71538566      -2.71502172       0.00079432       0.00000000
