10
Lattice="16.28999089631971 0.0 0.0 0.0 16.28999089631971 0.0 0.0 0.0 34.53561885213415" Properties=species:S:1:pos:R:3:initial_magmoms:R:1 pbc="T T T"
Si      -1.35713619       1.35681039      -1.35687069       0.00000000
Si      -1.35764118      -1.35531171       1.35818304       0.00000000
Si       1.35708732      -1.35770634      -1.35638719       0.00000000
Si       1.35747828       1.35707103       1.35707790       0.00000000
Si      -0.00087966       2.71296918      -2.71415580       0.00000000
Si       2.71357191      -0.00063531      -2.71443209       0.00000000
Si      -2.71759554       0.00120546       2.71125481       0.00000000
Si       0.00065160      -2.71546155      -2.71343055       0.00000000
Si      -2.71441899      -0.00141723      -2.71460477       0.00000000
Si      -2.71497285       2.71427238      -0.00037989       0.00000000
