10
Lattice="16.28999089631971 0.0 0.0 0.0 16.28999089631971 0.0 0.0 0.0 34.53561885213415" Properties=species:S:1:pos:R:3:initial_magmoms:R:1 pbc="T T T"
Si       1.35749457      -1.35307998       1.35801036       0.00000000
Si      -1.35747828      -1.35707103      -1.35707790       0.00000000
Si       1.35791275       1.35731538      -1.35697429       0.00000000
Si      -1.35705474       1.35694071       1.35980622       0.00000000
Si      -2.70857088      -0.01330893       2.68417887       0.00000000
Si      -2.71511946      -2.71238274       0.00110514       0.00000000
Si      -0.00039096      -2.71477737      -2.71346509       0.00000000
Si       2.71372896       2.71464705       0.00027629       0.00000000
Si      -2.71461447      -0.00026064      -2.71394859       0.00000000
Si      -0.00013032       2.71472850      -2.71412127       0.00000000
