10
Lattice="16.28999089631971 0.0 0.0 0.0 16.28999089631971 0.0 0.0 0.0 34.53561885213415" Properties=species:S:1:pos:R:3:initial_magmoms:R:1 pbc="T T T"
Si      -0.74261223      -1.88299368      -1.23540885       0.00000000
Si       1.93398138       0.74937258      -1.20335978       0.00000000
Si      -1.54559520       1.92726990      -0.08226389       0.00000000
Si       0.71794917      -1.81045431       1.62479817       0.00000000
Si       2.57124359       1.03773816       1.15932684       0.00000000
Si      -1.87012458      -0.43150581      -2.66086731       0.00000000
Si       0.02158425      -0.65844180       3.49448855       0.00000000
Si      -3.17568663       0.90373662      -1.34647546       0.00000000
Si       0.84118302       2.31466239      -2.60543761       0.00000000
Si       1.01304252       1.55246958       3.14851052       0.00000000
