10
Lattice="16.28999089631971 0.0 0.0 0.0 16.28999089631971 0.0 0.0 0.0 34.53561885213415" Properties=species:S:1:pos:R:3:initial_magmoms:R:1 pbc="T T T"
Si      -1.34498615      -1.33594290      -1.38967954       0.00000000
Si       1.37015679       1.37841093      -1.38698576       0.00000000
Si      -1.60694564       1.18470654       1.39399650       0.00000000
Si       1.34932188      -1.42094412       1.47173622       0.00000000
Si       2.28853812       0.38403675       2.83202594       0.00000000
Si      -2.71028363      -2.69140122      -0.00994626       0.00000000
Si       2.72945955      -2.69658144      -0.00939369       0.00000000
Si       0.01189659      -2.69879688      -2.74641209       0.00000000
Si      -2.69974400       2.74999635      -0.00808134       0.00000000
Si      -2.70248072       0.01713708      -2.74768991       0.00000000
