10
Lattice="16.28999089631971 0.0 0.0 0.0 16.28999089631971 0.0 0.0 0.0 34.53561885213415" Properties=species:S:1:pos:R:3:initial_magmoms:R:1 pbc="T T T"
Si       0.87928533       0.43777746       2.17139371       0.00000000
Si      -2.04563304       1.32429555      -0.07079806       0.00000000
Si      -0.99145827      -2.21091138       0.34597802       0.00000000
Si       1.55820107      -0.51473142      -1.98918369       0.00000000
Si       1.73625077      -1.78224003       2.42961668       0.00000000
Si      -2.73966849       0.67484583       2.15129397       0.00000000
Si      -1.01304252      -1.55246958      -3.14851052       0.00000000
Si      -0.29509335      -3.36292389      -1.52371236       0.00000000
Si       2.01778270      -2.78809866      -1.41675548       0.00000000
Si      -1.18706859       3.57399342      -0.28312316       0.00000000
