10
Lattice="16.28999089631971 0.0 0.0 0.0 16.28999089631971 0.0 0.0 0.0 34.53561885213415" Properties=species:S:1:pos:R:3:initial_magmoms:R:1 pbc="T T T"
Si      -2.09026764       0.33681204      -1.06438837       0.00000000
Si       0.31253994      -2.36876148      -0.30829964       0.00000000
Si       1.75200809       1.47908313      -0.74866356       0.00000000
Si       0.15351696      -0.51515496       2.40012324       0.00000000
Si       1.40253546      -2.41077339       1.79119087       0.00000000
Si      -1.76464683      -1.38693060      -2.65572150       0.00000000
Si       1.47674293       1.26928422       3.10060959       0.00000000
Si      -1.79229096      -3.07793034      -0.95356351       0.00000000
Si       3.00741812       1.73255553       1.28617624       0.00000000
Si      -3.73700745      -0.50145507       0.46198323       0.00000000
