10
Lattice="16.28999089631971 0.0 0.0 0.0 16.28999089631971 0.0 0.0 0.0 34.53561885213415" Properties=species:S:1:pos:R:3:initial_magmoms:R:1 pbc="T T T"
Si       1.07559612      -1.35594702      -1.63651442       0.00000000
Si      -1.09827180      -1.77218910       1.16935219       0.00000000
Si       1.94543325       1.14864048       0.95382563       0.00000000
Si      -1.75290174       1.79304030      -0.45950534       0.00000000
Si       0.32656563       2.33783259       2.51066802       0.00000000
Si      -2.42621631      -0.38327112       2.51931229       0.00000000
Si      -1.04254371       3.63945708       1.00937275       0.00000000
Si      -3.66977862       1.06565922       0.89832686       0.00000000
Si       3.02788363      -0.38059956       2.51817952       0.00000000
Si       2.95863867      -0.30476961      -2.62095279       0.00000000
