10
Lattice="16.28999089631971 0.0 0.0 0.0 16.28999089631971 0.0 0.0 0.0 34.53561885213415" Properties=species:S:1:pos:R:3:initial_magmoms:R:1 pbc="T T T"
Si       0.44231748      -0.07850151       2.27341199       0.00000000
Si       1.40044478      -0.85887396      -1.70474817       0.00000000
Si      -1.83721619      -1.48462173      -0.19177640       0.00000000
Si      -0.85696544       2.22001749      -0.25822297       0.00000000
Si      -2.72770904      -0.42867135      -2.08363866       0.00000000
Si      -1.73625077       1.78224003      -2.42961668       0.00000000
Si      -2.72520038      -1.36862064       1.99315528       0.00000000
Si       2.56245935       0.74161854       2.52890664       0.00000000
Si      -0.63649658      -2.04406920       3.10216370       0.00000000
Si      -2.73849302       2.46281994       1.27902736       0.00000000
