10
Lattice="16.28999089631971 0.0 0.0 0.0 16.28999089631971 0.0 0.0 0.0 34.53561885213415" Properties=species:S:1:pos:R:3:initial_magmoms:R:1 pbc="T T T"
Si       1.35682668      -1.35643572       1.36056600       0.00000000
Si      -1.35712766       1.35799956       1.36084229       0.00000000
Si       1.36625859       1.34671059      -1.37673213       0.00000000
Si      -1.35605195      -1.35985662      -1.37670450       0.00000000
Si      -2.71498004      -2.71313208       0.00352264       0.00000000
Si      -0.00052291      -2.71357191       2.71754029       0.00000000
Si       2.71811682      -2.71329498      -0.00158864       0.00000000
Si       2.71384884       2.71769328      -0.00024175       0.00000000
Si       2.71467963       0.00125433       2.71709133       0.00000000
Si      -2.71564793       0.00091224       2.71767844       0.00000000
