10
Lattice="16.28999089631971 0.0 0.0 0.0 16.28999089631971 0.0 0.0 0.0 34.53561885213415" Properties=species:S:1:pos:R:3:initial_magmoms:R:1 pbc="T T T"
Si       1.23957126      -1.35487188       1.45177462       0.00000000
Si       1.36943514       1.34421822      -1.36291442       0.00000000
Si      -1.34587980      -1.36935369      -1.36194743       0.00000000
Si      -1.30751685       1.31569443       1.53807918       0.00000000
Si       1.64669094       0.42733557       3.24265467       0.00000000
Si      -0.42749847      -2.36372787       2.85706427       0.00000000
Si      -2.71502824       2.69454519       0.03684953       0.00000000
Si       0.01066995       2.69832447      -2.72223714       0.00000000
Si      -2.70478834      -0.01598049      -2.72237528       0.00000000
Si       2.71339272      -2.72000646       0.00994626       0.00000000
