10
Lattice="16.28999089631971 0.0 0.0 0.0 16.28999089631971 0.0 0.0 0.0 34.53561885213415" Properties=species:S:1:pos:R:3:initial_magmoms:R:1 pbc="T T T"
Si       1.30751685      -1.31569443      -1.53807918       0.00000000
Si      -1.40751139       1.37885076      -1.50122965       0.00000000
Si      -0.38641509      -1.38587175       2.03024656       0.00000000
Si       1.68029721       1.31753520       1.45830186       0.00000000
Si       2.95420779      -0.88835886       1.70457549       0.00000000
Si       2.54708811      -2.67056631      -0.08630456       0.00000000
Si       2.72044629       2.83208166      -0.13365292       0.00000000
Si       2.67695199       0.02852379      -2.90099360       0.00000000
Si      -0.03836295      -2.68504812      -2.90002661       0.00000000
Si      -0.03719007       2.74160700      -2.89823075       0.00000000
