10
Lattice="16.28999089631971 0.0 0.0 0.0 16.28999089631971 0.0 0.0 0.0 34.53561885213415" Properties=species:S:1:pos:R:3:initial_magmoms:R:1 pbc="T T T"
Si      -1.32322597      -1.78443918      -0.70048635       0.00000000
Si       1.14864211      -0.49708935       1.98351984       0.00000000
Si      -1.59417754       1.72343313       0.40240926       0.00000000
Si       1.53067519       0.46327131      -1.81443336       0.00000000
Si      -1.47674293      -1.26928422      -3.10060959       0.00000000
Si       2.68601086       2.41645860      -1.02936923       0.00000000
Si       2.43499825       1.41333669       2.55480837       0.00000000
Si      -1.03174702       3.60593811      -0.90393579       0.00000000
Si       0.27526516       0.20979891      -3.84927316       0.00000000
Si      -0.22822616      -0.52457058       3.85369372       0.00000000
