10
Lattice="16.28999089631971 0.0 0.0 0.0 16.28999089631971 0.0 0.0 0.0 34.53561885213415" Properties=species:S:1:pos:R:3:initial_magmoms:R:1 pbc="T T T"
Si      -1.35878148       1.35635427       1.36115311       0.00000000
Si       1.35778779      -1.35944937       1.35984075       0.00000000
Si       1.34793234       1.36236528      -1.37440788       0.00000000
Si      -1.34759025      -1.37098269      -1.37649038       0.00000000
Si      -2.71379508       2.71109583       0.00514581       0.00000000
Si       2.72202642       2.70700704       0.00058711       0.00000000
Si       0.00083079       2.71288773       2.71816194       0.00000000
Si      -2.71384884      -2.71769328       0.00024175       0.00000000
Si      -2.71390585      -0.00135207       2.71774751       0.00000000
Si       2.71652040      -2.71573848       0.00031082       0.00000000
