10
Lattice="16.28999089631971 0.0 0.0 0.0 16.28999089631971 0.0 0.0 0.0 34.53561885213415" Properties=species:S:1:pos:R:3:initial_magmoms:R:1 pbc="T T T"
Si       1.33175637       1.35974259       1.36757674       0.00000000
Si       1.35537687      -1.35897696      -1.36208557       0.00000000
Si      -1.35850455       1.35718506      -1.36250000       0.00000000
Si      -1.37032132      -1.36275624       1.39700110       0.00000000
Si       2.71414206      -2.71308321      -0.00276285       0.00000000
Si      -2.71597373       2.71349046      -0.00006907       0.00000000
Si       2.71402803       2.71744424      -0.00334996       0.00000000
Si      -2.71390916      -2.71780731      -0.00276285       0.00000000
Si       2.71366965      -0.00029322      -2.71940522       0.00000000
Si      -0.00070047       2.71481769      -2.71930161       0.00000000
