10
Lattice="16.28999089631971 0.0 0.0 0.0 16.28999089631971 0.0 0.0 0.0 34.53561885213415" Properties=species:S:1:pos:R:3:initial_magmoms:R:1 pbc="T T T"
Si      -0.76125125       2.09808684      -0.81818380       0.00000000
Si       1.25541003       0.25347240       2.03483980       0.00000000
Si      -1.75200809      -1.47908313       0.74866356       0.00000000
Si       1.35266133      -0.71190558      -1.88647470       0.00000000
Si       1.46323785       2.67081066      -1.30296056       0.00000000
Si       2.88092397      -1.47370743       1.69490551       0.00000000
Si      -0.27526516      -0.20979891       3.84927316       0.00000000
Si       2.97284844       1.13072148      -2.26446726       0.00000000
Si      -0.22891522      -1.14807033      -3.72936542       0.00000000
Si      -3.84227573      -1.14227109      -0.31572480       0.00000000
