10
Lattice="16.28999089631971 0.0 0.0 0.0 16.28999089631971 0.0 0.0 0.0 34.53561885213415" Properties=species:S:1:pos:R:3:initial_magmoms:R:1 pbc="T T T"
Si       1.12689333       1.73497364       0.92303400       0.00000000
Si      -2.22448910      -0.57272382       0.48477675       0.00000000
Si       1.50961059      -1.54008918      -0.96150670       0.00000000
Si      -2.69717358      -0.16114068      -1.82310180       0.00000000
Si      -1.46323785      -2.67081066       1.30296056       0.00000000
Si      -1.27808082       1.55780034      -2.70572911       0.00000000
Si       2.24956755       2.26742043      -1.08707828       0.00000000
Si      -0.11057652      -3.38271624      -0.58351414       0.00000000
Si       1.10174157       1.47473079      -3.04196808       0.00000000
Si       2.28304350       0.89805141       2.78961617       0.00000000
