10
Lattice="16.28999089631971 0.0 0.0 0.0 16.28999089631971 0.0 0.0 0.0 34.24959146834617" Properties=species:S:1:pos:R:3:initial_magmoms:R:1 pbc="T T T"
Si       0.73083130      -0.22221189      -2.42983862       0.00000000
Si      -2.54467134       0.38942874       0.00455520       0.00000000
Si       1.17084049       1.17276597       2.09710366       0.00000000
Si      -0.94747543      -1.86846300       1.94383665       0.00000000
Si       0.79141381      -2.73207735       0.61508876       0.00000000
Si       3.19156612      -1.25561691       0.23611682       0.00000000
Si       0.25150131      -0.62512875       3.51681308       0.00000000
Si       3.45979726       1.20963024      -0.33540644       0.00000000
Si      -0.61786015       2.95565760       2.33833535       0.00000000
Si       2.50108189       1.32914997      -2.57755720       0.00000000
