10
Lattice="16.28999089631971 0.0 0.0 0.0 16.28999089631971 0.0 0.0 0.0 34.24959146834617" Properties=species:S:1:pos:R:3:initial_magmoms:R:1 pbc="T T T"
Si       1.35588186      -1.35275231      -1.35700382       0.00000000
Si      -1.35974259       1.35948286      -1.35642158       0.00000000
Si      -1.34008056      -1.37148581       1.36710746       0.00000000
Si       1.35692442       1.36280602       1.37159416       0.00000000
Si      -2.46651777       0.14148706       2.73017346       0.00000000
Si       2.71093293      -2.70944867       0.00524019       0.00000000
Si      -0.00216657      -2.71158266      -2.71349390       0.00000000
Si      -2.71586880      -2.70957899       0.00524019       0.00000000
Si       2.71249677       0.00271443      -2.71373365       0.00000000
Si       2.71510317       2.71328775       0.00294547       0.00000000
