10
Lattice="16.28999089631971 0.0 0.0 0.0 16.28999089631971 0.0 0.0 0.0 34.24959146834617" Properties=species:S:1:pos:R:3:initial_magmoms:R:1 pbc="T T T"
Si      -0.50373567       2.02357149       1.02207688       0.00000000
Si       0.55444644      -1.53035983       1.68244362       0.00000000
Si       1.97506476      -0.06404088      -1.25514548       0.00000000
Si      -1.81447794      -1.06008382      -1.12876442       0.00000000
Si      -0.70854984      -1.11217924      -3.24080090       0.00000000
Si      -1.48051665      -2.35821763       2.33390547       0.00000000
Si       1.41812595      -1.99846927      -2.68869718       0.00000000
Si      -2.55026466       1.52252367       2.10415908       0.00000000
Si       3.72379626       0.12759631       0.43082585       0.00000000
Si      -2.22018039      -3.01959163       0.18799611       0.00000000
