10
Lattice="16.28999089631971 0.0 0.0 0.0 16.28999089631971 0.0 0.0 0.0 34.24959146834617" Properties=species:S:1:pos:R:3:initial_magmoms:R:1 pbc="T T T"
Si      -0.37310616      -2.27581074      -0.40376866       0.00000000
Si      -0.59735430       1.07541693       2.03192665       0.00000000
Si       2.34820350       0.33187617      -0.22090999       0.00000000
Si      -1.43764137       0.67452003      -1.86900125       0.00000000
Si      -0.93568131       2.94143643      -1.24798731       0.00000000
Si      -0.16887843       3.15154485       1.10605692       0.00000000
Si       1.70023617      -2.94858774      -1.51205181       0.00000000
Si       3.28647492      -1.78105086      -0.21234759       0.00000000
Si       3.34383201       1.37955123       1.62675376       0.00000000
Si      -0.38214711      -0.58903011      -3.91990218       0.00000000
