10
Lattice="16.28999089631971 0.0 0.0 0.0 16.28999089631971 0.0 0.0 0.0 34.24959146834617" Properties=species:S:1:pos:R:3:initial_magmoms:R:1 pbc="T T T"
Si       1.32871014      -1.40199885       1.32926849       0.00000000
Si      -1.40116806       1.34631963       1.32864514       0.00000000
Si      -1.36247931      -1.18179063      -1.56419825       0.00000000
Si       1.57017681       1.07663868      -1.57913108       0.00000000
Si       2.68097562      -0.02917539       2.69633142       0.00000000
Si       2.64179817       2.73419505      -0.23195891       0.00000000
Si      -0.03372030       2.68737759       2.69934539       0.00000000
Si      -2.25825012       0.60204582      -3.02771836       0.00000000
Si       2.87855703      -2.52022590      -0.13162810       0.00000000
Si      -2.74908737      -0.03073923       2.69441344       0.00000000
