10
Lattice="16.28999089631971 0.0 0.0 0.0 16.28999089631971 0.0 0.0 0.0 34.24959146834617" Properties=species:S:1:pos:R:3:initial_magmoms:R:1 pbc="T T T"
Si      -1.35646830      -1.35668007      -1.35762031       0.00000000
Si       1.35692442      -1.35698958       1.35703807       0.00000000
Si       1.35627282       1.35796698      -1.35696957       0.00000000
Si      -1.35796698       1.35772263       1.35720932       0.00000000
Si       0.00035838       2.71507059       2.71407614       0.00000000
Si      -0.00037467      -2.71482624       2.71452139       0.00000000
Si       2.71427238       2.71515204      -0.00058224       0.00000000
Si       2.71479366      -2.71467963      -0.00065074       0.00000000
Si       2.71474479       0.00058644       2.71486388       0.00000000
Si      -2.71486697      -2.71503801      -0.00030825       0.00000000
