10
Lattice="16.28999089631971 0.0 0.0 0.0 16.28999089631971 0.0 0.0 0.0 34.24959146834617" Properties=species:S:1:pos:R:3:initial_magmoms:R:1 pbc="T T T"
Si      -1.35435060      -1.34886087       1.36703896       0.00000000
Si      -1.35347094       1.35809730      -1.36025753       0.00000000
Si       1.36091547      -1.35638685      -1.35946979       0.00000000
Si       1.36704051       1.36145304       1.37919757       0.00000000
Si      -2.71080261      -2.71396287      -0.00106174       0.00000000
Si       2.71658556      -2.71194291       0.00106174       0.00000000
Si      -2.71031391       2.71842633       0.00188373       0.00000000
Si      -2.71179630       0.00074934      -2.71712436       0.00000000
Si       0.00309510      -2.71396287      -2.71729561       0.00000000
Si       0.00338832       2.71642266      -2.71685036       0.00000000
