10
Lattice="16.28999089631971 0.0 0.0 0.0 16.28999089631971 0.0 0.0 0.0 34.24959146834617" Properties=species:S:1:pos:R:3:initial_magmoms:R:1 pbc="T T T"
Si       0.40665379       2.14610976      -0.80322187       0.00000000
Si       0.45681070      -1.43759576      -1.83204592       0.00000000
Si       1.88584443       0.18591777       1.48054217       0.00000000
Si      -2.33001476       0.26529894       0.61567100       0.00000000
Si      -1.78773695      -0.29582640       2.83436078       0.00000000
Si      -0.95261381       1.91102877      -2.67619607       0.00000000
Si       0.41796719       0.21914937      -3.53106635       0.00000000
Si       2.78321166       2.09334645      -1.17356291       0.00000000
Si      -0.28304527      -2.08687022       3.09304808       0.00000000
Si       1.99643724      -1.78492299       2.69085491       0.00000000
