10
Lattice="16.28999089631971 0.0 0.0 0.0 16.28999089631971 0.0 0.0 0.0 34.24959146834617" Properties=species:S:1:pos:R:3:initial_magmoms:R:1 pbc="T T T"
Si       1.07162136       1.65755637       1.34717217       0.00000000
Si      -1.57017681      -1.07663868       1.57913108       0.00000000
Si      -1.42827462       1.00186758      -1.82755922       0.00000000
Si       1.95561450      -1.64239038      -0.11559244       0.00000000
Si      -2.93265612      -2.25842931       0.01493283       0.00000000
Si       2.48031540       0.26368623       2.87569804       0.00000000
Si      -0.24146667      -2.47863753       2.90839957       0.00000000
Si      -0.47561913       0.12201210      -3.81732460       0.00000000
Si      -1.55504340      -3.13183395      -1.75556654       0.00000000
Si       1.88828793       3.60515619       0.05130592       0.00000000
