10
Lattice="16.28999089631971 0.0 0.0 0.0 16.28999089631971 0.0 0.0 0.0 34.24959146834617" Properties=species:S:1:pos:R:3:initial_magmoms:R:1 pbc="T T T"
Si       1.35685926       1.35832536      -1.35659283       0.00000000
Si       1.35347094      -1.35809730       1.36025753       0.00000000
Si      -1.35832536      -1.35734796      -1.35686682       0.00000000
Si      -1.35684297       1.36032903       1.36214126       0.00000000
Si       0.01894527       2.69842221       2.72400853       0.00000000
Si       2.71391400       0.00008145      -2.71465839       0.00000000
Si       2.71438641      -2.71448415       0.00078774       0.00000000
Si      -0.00035838      -2.71507059      -2.71407614       0.00000000
Si      -0.00074934       2.71531494      -2.71448714       0.00000000
Si      -2.71596654       0.00026064      -2.71424739       0.00000000
