10
Lattice="16.28999089631971 0.0 0.0 0.0 16.28999089631971 0.0 0.0 0.0 34.24959146834617" Properties=species:S:1:pos:R:3:initial_magmoms:R:1 pbc="T T T"
Si      -1.35588186       1.35275231       1.35700382       0.00000000
Si       1.35661491       1.35546674      -1.35672983       0.00000000
Si      -1.35804843      -1.35883035      -1.35649008       0.00000000
Si       1.35505107      -1.35669636       1.36224401       0.00000000
Si      -2.69596242      -0.01873350       2.72411128       0.00000000
Si      -0.00084708       2.71321420      -2.71421314       0.00000000
Si      -2.71562445       2.71223517       0.00058224       0.00000000
Si       2.71412577       2.71421441      -0.00020550       0.00000000
Si       2.71425609      -0.00169416      -2.71493238       0.00000000
Si      -2.71565703      -0.00184077      -2.71438439       0.00000000
