10
Lattice="16.28999089631971 0.0 0.0 0.0 16.28999089631971 0.0 0.0 0.0 34.24959146834617" Properties=species:S:1:pos:R:3:initial_magmoms:R:1 pbc="T T T"
Si      -0.37926378      -2.03372505      -1.01810392       0.00000000
Si      -1.20163185       0.12699684       2.02641246       0.00000000
Si       2.13159537       0.66645648       0.89408608       0.00000000
Si      -1.41864723       0.51901569      -1.92140316       0.00000000
Si       1.44484155       2.91665024       0.58638758       0.00000000
Si       0.32946525       1.45871560      -3.18463154       0.00000000
Si       1.72230912      -2.66822055      -1.82444251       0.00000000
Si      -3.32830764       1.01328687       1.47430874       0.00000000
Si       2.28525894      -0.48096225       3.08328695       0.00000000
Si       1.25390646       3.31313255      -1.81266064       0.00000000
