10
Lattice="16.28999089631971 0.0 0.0 0.0 16.28999089631971 0.0 0.0 0.0 34.24959146834617" Properties=species:S:1:pos:R:3:initial_magmoms:R:1 pbc="T T T"
Si       1.02868092      -0.94175748      -1.93373301       0.00000000
Si      -0.07965810       2.39561459      -0.39462401       0.00000000
Si      -2.43695142      -0.41875074      -0.00520594       0.00000000
Si       0.61137999      -0.28070928       2.44518245       0.00000000
Si      -2.16943704       2.00636504       0.66995663       0.00000000
Si      -1.20881574       1.54100142       2.74769286       0.00000000
Si       2.53900827      -2.30094621      -0.81171577       0.00000000
Si      -0.55741122      -2.33567649      -2.88847516       0.00000000
Si      -2.70518256      -2.88399789       0.56631731       0.00000000
Si      -3.39566679      -0.29923101      -2.24735670       0.00000000
