10
Lattice="16.28999089631971 0.0 0.0 0.0 16.28999089631971 0.0 0.0 0.0 34.24959146834617" Properties=species:S:1:pos:R:3:initial_magmoms:R:1 pbc="T T T"
Si      -1.35392706       1.35750477      -1.36371675       0.00000000
Si       1.36163223      -1.35903911      -1.36292900       0.00000000
Si      -1.36256076      -1.34775014       1.38529400       0.00000000
Si       1.35099486       1.36923845       1.38351302       0.00000000
Si      -2.70883152       2.70933042      -0.00356196       0.00000000
Si      -2.71300176      -2.71340600      -0.00126724       0.00000000
Si      -2.71143792      -0.00124290      -2.72024107       0.00000000
Si       2.71782360      -2.71602869      -0.00232897       0.00000000
Si       0.00348606       2.71428258      -2.72013832       0.00000000
Si       2.71609686       2.71877862      -0.00363046       0.00000000
