10
Lattice="16.28999089631971 0.0 0.0 0.0 16.28999089631971 0.0 0.0 0.0 34.24959146834617" Properties=species:S:1:pos:R:3:initial_magmoms:R:1 pbc="T T T"
Si       0.12175146      -2.36389959       0.03027666       0.00000000
Si      -1.74873150      -0.19163719      -1.68597133       0.00000000
Si       1.87802523       1.31248367      -0.84819161       0.00000000
Si      -0.66552795       0.64462951       2.29893661       0.00000000
Si       1.18122048      -2.73402468      -2.06264855       0.00000000
Si       1.54269558      -2.83630959       1.81159890       0.00000000
Si       1.44389673       3.44567546       0.29636188       0.00000000
Si      -3.72379626      -0.12759631      -0.43082585       0.00000000
Si      -1.77057639      -1.26179964       3.08989712       0.00000000
Si      -3.16934982      -1.65795615       1.25161777       0.00000000
