10
Lattice="16.28999089631971 0.0 0.0 0.0 16.28999089631971 0.0 0.0 0.0 34.24959146834617" Properties=species:S:1:pos:R:3:initial_magmoms:R:1 pbc="T T T"
Si      -0.44779581      -1.04370519       2.11193374       0.00000000
Si       0.48436686       2.23570476       0.72235854       0.00000000
Si       2.04836976      -1.19506372      -0.38863033       0.00000000
Si      -1.57835439      -0.22367473      -1.87547443       0.00000000
Si      -2.68340283      -2.13010388      -1.08451392       0.00000000
Si       3.57901074       0.41176233       0.23241786       0.00000000
Si       2.61936684       2.56616370      -0.18830436       0.00000000
Si      -2.70855459      -0.48589975       2.60447739       0.00000000
Si      -0.53743968      -3.37449698       1.65031749       0.00000000
Si      -1.07849574      -3.81444101      -0.62063719       0.00000000
