10
Lattice="16.28999089631971 0.0 0.0 0.0 16.28999089631971 0.0 0.0 0.0 34.24959146834617" Properties=species:S:1:pos:R:3:initial_magmoms:R:1 pbc="T T T"
Si      -0.08964387      -2.33079179      -0.46161625       0.00000000
Si      -2.26075878       0.55780544       0.49254365       0.00000000
Si       0.44779581       1.04370519      -2.11193374       0.00000000
Si       1.38245085       0.29275248       2.02185726       0.00000000
Si       2.49616557      -0.15135853      -2.50056407       0.00000000
Si       0.93216267       3.27940995      -1.38957520       0.00000000
Si      -3.38890644      -0.89336219      -1.13893655       0.00000000
Si      -2.41841340      -0.08514294       2.85299256       0.00000000
Si      -0.50937201       1.22501289       3.65241272       0.00000000
Si      -1.31007438      -3.42251501       1.31388356       0.00000000
