10
Lattice="16.28999089631971 0.0 0.0 0.0 16.28999089631971 0.0 0.0 0.0 34.24959146834617" Properties=species:S:1:pos:R:3:initial_magmoms:R:1 pbc="T T T"
Si       1.06187994      -1.89896507       0.93597336       0.00000000
Si       1.57030713       1.82478951      -0.06582775       0.00000000
Si      -1.38245085      -0.29275248      -2.02185726       0.00000000
Si      -1.89182286       0.93226041       1.63055546       0.00000000
Si      -0.05408280       3.26607984      -1.03971543       0.00000000
Si      -1.96898859       2.96966700       0.33598868       0.00000000
Si       3.26291958       1.28840868      -1.63141170       0.00000000
Si      -1.47209472      -2.62354427      -2.48347351       0.00000000
Si      -3.80086425      -0.37789542       0.83113530       0.00000000
Si      -3.64320963       0.26505296      -1.52931361       0.00000000
