10
Lattice="16.28999089631971 0.0 0.0 0.0 16.28999089631971 0.0 0.0 0.0 34.24959146834617" Properties=species:S:1:pos:R:3:initial_magmoms:R:1 pbc="T T T"
Si       1.35672894      -1.35666378      -1.35727782       0.00000000
Si       1.35814617       1.35770634       1.35652433       0.00000000
Si      -1.35767376       1.35785295      -1.35765456       0.00000000
Si      -1.35783666      -1.35773892       1.35762031       0.00000000
Si       2.71433754      -2.71423980       0.00034250       0.00000000
Si       2.71389771      -0.00226431       2.71476114       0.00000000
Si       2.71448415       0.00309510      -2.71452139       0.00000000
Si      -2.71516833       0.00250866      -2.71404189       0.00000000
Si       0.00166158      -2.71458189      -2.71482963       0.00000000
Si       0.00143352       2.71503801      -2.71452139       0.00000000
