10
Lattice="16.28999089631971 0.0 0.0 0.0 16.28999089631971 0.0 0.0 0.0 34.24959146834617" Properties=species:S:1:pos:R:3:initial_magmoms:R:1 pbc="T T T"
Si      -1.35870003       1.35472527      -1.35559959       0.00000000
Si       1.35744570       1.35454608       1.35751757       0.00000000
Si      -1.35775521      -1.35975888       1.35724357       0.00000000
Si       1.35930276      -1.36440153      -1.36227826       0.00000000
Si      -2.71305063       2.71194291       0.00000000       0.00000000
Si       0.00017919       2.71215468       2.71441864       0.00000000
Si       2.71555929       2.71134018      -0.00085624       0.00000000
Si      -2.71448415      -0.00309510       2.71452139       0.00000000
Si       2.71485882      -0.00273672       2.71503513       0.00000000
Si      -2.71282257      -2.71767699      -0.00030825       0.00000000
