10
Lattice="16.28999089631971 0.0 0.0 0.0 16.28999089631971 0.0 0.0 0.0 34.24959146834617" Properties=species:S:1:pos:R:3:initial_magmoms:R:1 pbc="T T T"
Si       1.35671265      -1.37228589      -1.38680098       0.00000000
Si      -1.39165470       1.35404109      -1.38522550       0.00000000
Si       1.45507167       1.27593054       1.44947777       0.00000000
Si      -1.07385309      -1.56045168       1.51962097       0.00000000
Si      -2.65022010      -2.67535557       0.04606573       0.00000000
Si       2.70733284      -2.66175342       0.24779593       0.00000000
Si       2.76271884       2.66923053      -0.00085624       0.00000000
Si       0.18497295       2.68389153       2.77808867       0.00000000
Si       2.69900865      -0.01606194      -2.76973176       0.00000000
Si      -0.01694160       2.70376533      -2.76610130       0.00000000
