10
Lattice="16.28999089631971 0.0 0.0 0.0 16.28999089631971 0.0 0.0 0.0 34.24959146834617" Properties=species:S:1:pos:R:3:initial_magmoms:R:1 pbc="T T T"
Si       1.35826020       1.35549090       1.35775731       0.00000000
Si      -1.35703845      -1.35738054       1.35775731       0.00000000
Si      -1.35751086       1.35718506      -1.35768881       0.00000000
Si       1.35765747      -1.35796698      -1.35765456       0.00000000
Si       0.00053757       2.71383255      -2.71411039       0.00000000
Si      -2.71551042       0.00000000      -2.71407614       0.00000000
Si       2.71523349       0.00097740      -2.71441864       0.00000000
Si      -2.71485882      -2.71495656      -0.00006850       0.00000000
Si      -2.71456560       2.71542897       0.00037675       0.00000000
Si       2.71516833       2.71485882      -0.00023975       0.00000000
