10
Lattice="16.28999089631971 0.0 0.0 0.0 16.28999089631971 0.0 0.0 0.0 34.24959146834617" Properties=species:S:1:pos:R:3:initial_magmoms:R:1 pbc="T T T"
Si      -0.45737433      -1.24607097       2.09888464       0.00000000
Si      -1.78553061      -0.95293242      -1.63028146       0.00000000
Si       1.66288320      -2.04628464       0.23241786       0.00000000
Si       2.49331482       1.35529542       0.24570671       0.00000000
Si       0.50932314       2.75822280      -0.66317521       0.00000000
Si      -0.58424085       3.06856359       1.61510889       0.00000000
Si       2.18872440       0.33386355      -2.86261670       0.00000000
Si      -0.51543189      -2.36089341      -2.95889236       0.00000000
Si      -2.83108797      -1.45670067       2.13720995       0.00000000
Si       0.54587790      -3.60471636      -1.26401613       0.00000000
