10
Lattice="16.28999089631971 0.0 0.0 0.0 16.28999089631971 0.0 0.0 0.0 34.24959146834617" Properties=species:S:1:pos:R:3:initial_magmoms:R:1 pbc="T T T"
Si       1.32897078       1.35013705       1.38457133       0.00000000
Si      -1.38417759      -1.36404315       1.37957089       0.00000000
Si      -1.31729085       1.47896814      -1.34395130       0.00000000
Si       1.48431222      -1.35470898      -1.60436478       0.00000000
Si      -2.42641179      -0.26081919      -2.53700634       0.00000000
Si      -0.60621606      -2.08252989      -2.83951675       0.00000000
Si       2.69695611       2.70442412      -0.00959674       0.00000000
Si       2.68708437      -2.73974994      -0.01092905       0.00000000
Si       2.68887627      -0.00342326       2.74513711       0.00000000
Si      -0.02482596       2.70955547       2.74458912       0.00000000
