10
Lattice="16.28999089631971 0.0 0.0 0.0 16.28999089631971 0.0 0.0 0.0 34.24959146834617" Properties=species:S:1:pos:R:3:initial_magmoms:R:1 pbc="T T T"
Si       1.36256076       1.34775014      -1.38529400       0.00000000
Si      -1.35044100      -1.36565586      -1.38656124       0.00000000
Si       1.37101527      -1.37668419       1.38758872       0.00000000
Si      -1.44024777       1.41212620       1.53517030       0.00000000
Si      -2.70444951       2.70659883      -0.02020727       0.00000000
Si      -2.69988831      -2.72275947      -0.00924739       0.00000000
Si       2.71355562       2.71698859      -0.00178098       0.00000000
Si       0.00863370       2.70525491      -2.74901075       0.00000000
Si      -2.70549207      -0.00895950      -2.74880525       0.00000000
Si       2.71880100      -2.73859335      -0.02294724       0.00000000
