10
Lattice="16.28999089631971 0.0 0.0 0.0 16.28999089631971 0.0 0.0 0.0 34.24959146834617" Properties=species:S:1:pos:R:3:initial_magmoms:R:1 pbc="T T T"
Si       1.81503180       1.05520104       1.05019581       0.00000000
Si       1.34778573      -1.36190916      -1.41053596       0.00000000
Si      -1.37101527       1.37668419      -1.38758872       0.00000000
Si      -1.41841917      -1.33812576       1.50777061       0.00000000
Si      -2.62039311      -2.67647958      -0.02366648       0.00000000
Si       2.67603975      -2.70417258       0.07004045       0.00000000
Si       1.17263565       1.72711467       3.18545353       0.00000000
Si       3.55030776      -0.64922166       1.24761057       0.00000000
Si       2.70936909       0.00840564      -2.77521170       0.00000000
Si      -0.00272043      -2.70759348      -2.77942440       0.00000000
