10
Lattice="16.28999089631971 0.0 0.0 0.0 16.28999089631971 0.0 0.0 0.0 34.24959146834617" Properties=species:S:1:pos:R:3:initial_magmoms:R:1 pbc="T T T"
Si      -0.46268487      -2.26698156      -0.40089169       0.00000000
Si      -1.05946902       0.37012509       2.09292521       0.00000000
Si       2.34665595      -0.39592845       0.14788982       0.00000000
Si      -0.15366357       1.14741873      -2.18920086       0.00000000
Si       2.50921386      -1.15685064      -2.15234828       0.00000000
Si      -1.18122048       2.73402468       2.06264855       0.00000000
Si       0.72615933      -3.29235561       1.34690019       0.00000000
Si      -3.48689079       0.60795909      -1.05687448       0.00000000
Si       0.63087912      -2.57732235      -2.67917579       0.00000000
Si      -2.28525894       0.48096225      -3.08328695       0.00000000
