10
Lattice="16.28999089631971 0.0 0.0 0.0 16.28999089631971 0.0 0.0 0.0 34.24959146834617" Properties=species:S:1:pos:R:3:initial_magmoms:R:1 pbc="T T T"
Si       1.68256152       1.20808921      -1.20278266       0.00000000
Si       1.31145903      -1.24778380       1.59683330       0.00000000
Si      -1.39575978       1.45475239       1.57771516       0.00000000
Si      -0.65409237      -2.00002171      -1.47773853       0.00000000
Si      -2.60840367      -2.60438071      -0.01705288       0.00000000
Si       2.68249059      -2.64608311       0.24542243       0.00000000
Si      -2.59403589       2.97345280       0.08924079       0.00000000
Si      -0.04574232      -2.61233023       2.97030775       0.00000000
Si       2.76483654       2.84683063       0.19777095       0.00000000
Si       2.66851377       0.10356530       2.97589044       0.00000000
