10
Lattice="16.28999089631971 0.0 0.0 0.0 16.28999089631971 0.0 0.0 0.0 34.24959146834617" Properties=species:S:1:pos:R:3:initial_magmoms:R:1 pbc="T T T"
Si      -1.35632169       1.35653020       1.35696957       0.00000000
Si       1.35546535      -1.35842680       1.35683257       0.00000000
Si       1.35952481       1.34569735      -1.36951863       0.00000000
Si      -1.35705474      -1.35134910      -1.37905715       0.00000000
Si      -2.71393029       2.70959389      -0.00595943       0.00000000
Si       2.71461025       2.71149982      -0.00301397       0.00000000
Si      -0.00026064       2.71327543       2.71363090       0.00000000
Si       2.71423070      -0.00129506       2.71342540       0.00000000
Si      -2.71523349      -0.00157198       2.71315140       0.00000000
Si       2.71418346      -2.71566747      -0.00541144       0.00000000
