10
Lattice="16.28999089631971 0.0 0.0 0.0 16.28999089631971 0.0 0.0 0.0 34.24959146834617" Properties=species:S:1:pos:R:3:initial_magmoms:R:1 pbc="T T T"
Si      -1.23338106       1.40968773      -1.39012320       0.00000000
Si       1.51317388      -1.31369076      -1.38690373       0.00000000
Si       1.28720552       1.42824204       1.50006445       0.00000000
Si      -1.35845568      -1.43204087       1.61822560       0.00000000
Si       1.91111741      -0.59276052       2.85758201       0.00000000
Si      -2.45661345      -2.61284823      -0.09189171       0.00000000
Si       0.43283086      -2.52541150       2.58711284       0.00000000
Si      -2.56828140       0.04106709      -2.76630680       0.00000000
Si       0.15234408      -2.68403317      -2.76856727       0.00000000
Si      -2.66927940       2.78244603       0.21330657       0.00000000
