10
Lattice="16.28999089631971 0.0 0.0 0.0 16.28999089631971 0.0 0.0 0.0 34.24959146834617" Properties=species:S:1:pos:R:3:initial_magmoms:R:1 pbc="T T T"
Si      -1.00427850      -1.73409658       1.15229390       0.00000000
Si       1.27048968      -1.42676944      -1.33241260       0.00000000
Si       1.09815777       1.18080737       1.71011731       0.00000000
Si      -1.47676995       1.30437516      -1.28727161       0.00000000
Si       2.45661345       2.61284823       0.09189171       0.00000000
Si       2.60895753      -0.07118494      -2.67667557       0.00000000
Si       0.73099746      -3.43851928       1.34970865       0.00000000
Si      -0.11166795       2.65391532      -2.67441509       0.00000000
Si       2.60454294      -2.76414586       0.08021259       0.00000000
Si      -1.64667465      -1.06218295       3.28755162       0.00000000
