10
Lattice="16.28999089631971 0.0 0.0 0.0 16.28999089631971 0.0 0.0 0.0 34.24959146834617" Properties=species:S:1:pos:R:3:initial_magmoms:R:1 pbc="T T T"
Si       1.79128654      -1.09337063       0.96888723       0.00000000
Si      -1.09815777      -1.18080737      -1.71011731       0.00000000
Si       1.35845568       1.43204087      -1.61822560       0.00000000
Si      -1.26433206      -0.63168710       2.39373954       0.00000000
Si      -1.93837968       1.63043678       2.52950499       0.00000000
Si       3.26957309       0.83928035       1.23935641       0.00000000
Si      -2.10243627      -2.91490395      -0.55782341       0.00000000
Si      -2.74483242      -2.24299032       1.57743432       0.00000000
Si       2.64566120       2.86028291      -0.11816116       0.00000000
Si       2.98777726      -2.46044553      -0.46524671       0.00000000
