10
Lattice="16.28999089631971 0.0 0.0 0.0 16.28999089631971 0.0 0.0 0.0 34.24959146834617" Properties=species:S:1:pos:R:3:initial_magmoms:R:1 pbc="T T T"
Si       2.25851076       0.55661301      -0.42401018       0.00000000
Si      -0.65067147       2.29136769       0.06627300       0.00000000
Si      -0.90318276      -0.54604080      -2.28122956       0.00000000
Si      -0.92517426      -2.27352688       1.82437401       0.00000000
Si       0.27391635       1.18886049       2.80665284       0.00000000
Si       0.88110981      -1.08911682       2.86785689       0.00000000
Si      -2.99191914      -0.73230066      -1.20044885       0.00000000
Si      -3.04093575      -1.25094168       1.21120323       0.00000000
Si      -0.18808434       2.12661063      -2.87552881       0.00000000
Si       2.03214492       2.55858885      -1.59497012       0.00000000
