10
Lattice="16.28999089631971 0.0 0.0 0.0 16.28999089631971 0.0 0.0 0.0 34.24959146834617" Properties=species:S:1:pos:R:3:initial_magmoms:R:1 pbc="T T T"
Si       1.35926759       0.23508099       1.87297421       0.00000000
Si      -0.22636584       2.00197584      -1.17095994       0.00000000
Si       1.37058100      -1.69187940      -0.85487028       0.00000000
Si      -2.25851076      -0.55661301       0.42401018       0.00000000
Si      -2.90918223       1.73475468       0.49028318       0.00000000
Si       0.95261381      -1.91102877       2.67619607       0.00000000
Si       0.22323816       1.94284314       2.96690677       0.00000000
Si       3.54774113      -0.72874944      -0.72424227       0.00000000
Si       1.40942450      -3.34862453       0.84415015       0.00000000
Si      -1.34478837       3.15146340       1.62350004       0.00000000
