10
Lattice="16.28999089631971 0.0 0.0 0.0 16.28999089631971 0.0 0.0 0.0 34.24959146834617" Properties=species:S:1:pos:R:3:initial_magmoms:R:1 pbc="T T T"
Si       0.54227781      -0.56112534       2.21868978       0.00000000
Si      -0.60719346       2.27797731      -0.06120405       0.00000000
Si      -1.80628407      -1.18441006      -1.04348289       0.00000000
Si       2.33001476      -0.26529894      -0.61567100       0.00000000
Si      -0.88110981       1.08911682      -2.86785689       0.00000000
Si       0.63359955       3.01400838       1.83512839       0.00000000
Si       2.73666854       1.88081082      -1.41889287       0.00000000
Si      -2.43713061      -2.70388655       0.81044854       0.00000000
Si       1.64788011       1.30000716       3.10578894       0.00000000
Si      -1.30823361      -0.19424196       3.59836684       0.00000000
