10
Lattice="16.28999089631971 0.0 0.0 0.0 16.28999089631971 0.0 0.0 0.0 34.24959146834617" Properties=species:S:1:pos:R:3:initial_magmoms:R:1 pbc="T T T"
Si       1.35617508      -1.35583299      -1.35950404       0.00000000
Si      -1.35811359      -1.35679410       1.35837381       0.00000000
Si       1.35669636       1.35899325       1.35827106       0.00000000
Si      -1.35977517       1.36001952      -1.36166177       0.00000000
Si      -2.71555929      -2.71134018       0.00085624       0.00000000
Si       2.71433754      -2.71467963      -0.00037675       0.00000000
Si      -0.00070047      -2.71407690       2.71589137       0.00000000
Si       2.71473596       0.00081450       2.71558313       0.00000000
Si      -2.71538010       0.00081450       2.71527488       0.00000000
Si      -0.00008145       2.71557558       2.71551463       0.00000000
