10
Lattice="16.28999089631971 0.0 0.0 0.0 16.28999089631971 0.0 0.0 0.0 34.24959146834617" Properties=species:S:1:pos:R:3:initial_magmoms:R:1 pbc="T T T"
Si       0.09347202       1.66123791      -1.59171640       0.00000000
Si       0.37181925      -2.13094377      -0.80890730       0.00000000
Si       1.43773538       0.19883574       1.79697432       0.00000000
Si      -2.39656851       0.50303520       0.72585200       0.00000000
Si      -1.79973549      -1.44943533       1.98110023       0.00000000
Si       0.33068700      -1.54250010       2.91912856       0.00000000
Si      -3.04209234       0.00047241      -1.51239431       0.00000000
Si      -1.75353705       2.77030998       1.28713462       0.00000000
Si      -0.25809876       3.56672808      -0.37325226       0.00000000
Si      -1.59835851       1.06520310      -3.04872909       0.00000000
