10
Lattice="16.28999089631971 0.0 0.0 0.0 16.28999089631971 0.0 0.0 0.0 34.24959146834617" Properties=species:S:1:pos:R:3:initial_magmoms:R:1 pbc="T T T"
Si      -1.35571896       1.35702216       1.36272351       0.00000000
Si       1.35977517      -1.36001952       1.36166177       0.00000000
Si      -1.37986074      -1.35785295      -1.35758607       0.00000000
Si       1.37441988       1.36187658      -1.36523058       0.00000000
Si      -0.05059674      -2.64696210      -2.76783433       0.00000000
Si      -2.71450044       2.71336014       0.00243172       0.00000000
Si       2.71551042       2.71417464       0.00750066       0.00000000
Si      -2.71448415      -2.71663443       0.00691842       0.00000000
Si       2.71595025      -2.71585251       0.00215773       0.00000000
Si      -2.71329498      -0.00192222       2.71948758       0.00000000
