10
Lattice="16.28999089631971 0.0 0.0 0.0 16.28999089631971 0.0 0.0 0.0 34.24959146834617" Properties=species:S:1:pos:R:3:initial_magmoms:R:1 pbc="T T T"
Si       1.35677781      -1.35658233      -1.35724357       0.00000000
Si       1.35741312       1.35799956       1.35686682       0.00000000
Si      -1.35754344       1.35811359      -1.35744907       0.00000000
Si      -1.35954711      -1.35612621       1.35868205       0.00000000
Si       2.71334385       0.00324171       2.71304865       0.00000000
Si      -2.71337643      -0.00057015       2.71380215       0.00000000
Si       0.00092853       2.71471221      -2.71339115       0.00000000
Si       2.71416396       0.00164529      -2.71428164       0.00000000
Si       2.71481741      -2.71476108       0.00006850       0.00000000
Si      -2.71541268       0.00146610      -2.71445289       0.00000000
