10
Lattice="16.28999089631971 0.0 0.0 0.0 16.28999089631971 0.0 0.0 0.0 34.24959146834617" Properties=species:S:1:pos:R:3:initial_magmoms:R:1 pbc="T T T"
Si      -1.27048968       1.42676944       1.33241260       0.00000000
Si       1.33846785       1.35558450      -1.34426297       0.00000000
Si      -1.38043089      -1.35412254      -1.34070101       0.00000000
Si       1.33405326      -1.33737642       1.41262519       0.00000000
Si      -2.27476818      -0.30732714       2.48470650       0.00000000
Si      -0.53949222      -2.01174984       2.68212126       0.00000000
Si       2.69136117       0.00392589      -2.70249977       0.00000000
Si       2.81544535       0.14713128       2.57728320       0.00000000
Si       2.68130209      -2.72466540       0.03537985       0.00000000
Si      -0.02173086      -2.71155195      -2.70184903       0.00000000
