10
Lattice="16.28999089631971 0.0 0.0 0.0 16.28999089631971 0.0 0.0 0.0 34.24959146834617" Properties=species:S:1:pos:R:3:initial_magmoms:R:1 pbc="T T T"
Si       1.87354548       0.67437342      -1.26949607       0.00000000
Si       0.43510590      -0.07752411       2.31993162       0.00000000
Si      -1.73527596       1.70442270      -0.19741476       0.00000000
Si      -0.87426801      -2.05495092      -1.17757011       0.00000000
Si       0.53949222       2.01174984      -2.68212126       0.00000000
Si      -2.20252203      -0.71268750      -2.65814653       0.00000000
Si      -1.89656325       0.34150356       3.01554122       0.00000000
Si      -0.73099746       3.43851928      -1.34970865       0.00000000
Si       0.70312527      -2.36275047       2.87563156       0.00000000
Si      -3.55030776       0.64922166      -1.24761057       0.00000000
