10
Lattice="16.28999089631971 0.0 0.0 0.0 16.28999089631971 0.0 0.0 0.0 34.24959146834617" Properties=species:S:1:pos:R:3:initial_magmoms:R:1 pbc="T T T"
Si       2.17794042       0.61320447      -0.55857690       0.00000000
Si      -0.28509129      -0.01699047       2.34243362       0.00000000
Si      -0.84587454      -2.15656794      -0.54634979       0.00000000
Si      -1.28640501       1.68801867      -1.15517087       0.00000000
Si      -2.90690163      -1.20840849       0.04383950       0.00000000
Si      -2.57872329      -0.23791545       2.14464212       0.00000000
Si       2.94512027      -1.19954673      -1.84776649       0.00000000
Si      -1.12384710       0.92709648      -3.45540896       0.00000000
Si      -1.01819016      -1.89630261      -3.07335456       0.00000000
Si       2.14617492       2.89193112      -1.26213240       0.00000000
