10
Lattice="16.28999089631971 0.0 0.0 0.0 16.28999089631971 0.0 0.0 0.0 34.24959146834617" Properties=species:S:1:pos:R:3:initial_magmoms:R:1 pbc="T T T"
Si      -0.48110886       2.03483277      -1.07769825       0.00000000
Si      -1.87833474      -1.42047171      -0.52682751       0.00000000
Si      -0.16255791       0.76092219       2.30023810       0.00000000
Si       2.33166915      -0.41902767      -0.69560959       0.00000000
Si       0.10565694      -2.82339909       0.38205441       0.00000000
Si       0.16128729       1.36291914      -3.21295597       0.00000000
Si      -2.50921386       1.15685064       2.15234828       0.00000000
Si      -2.66287743       2.30426937      -0.03685258       0.00000000
Si       1.89656325      -0.34150356      -3.01554122       0.00000000
Si      -2.97189873      -1.11013092       1.75145659       0.00000000
