10
Lattice="16.28999089631971 0.0 0.0 0.0 16.28999089631971 0.0 0.0 0.0 34.24959146834617" Properties=species:S:1:pos:R:3:initial_magmoms:R:1 pbc="T T T"
Si      -1.32997262       1.33740900      -1.54582193       0.00000000
Si      -1.54962372      -1.32004386       1.35152388       0.00000000
Si       1.37982816      -1.34633592      -1.52633390       0.00000000
Si       0.85874364       1.99189233       1.28251092       0.00000000
Si      -2.63559152       0.81344115       2.44045600       0.00000000
Si      -0.98236845       3.55376124       1.10157023       0.00000000
Si       2.67327045       2.77415442      -0.04925094       0.00000000
Si      -2.70489653       2.73929382      -0.27033218       0.00000000
Si       2.82260088      -2.65903299      -0.10113910       0.00000000
Si      -2.83682924      -2.74828590      -0.14854056       0.00000000
