10
Lattice="16.28999089631971 0.0 0.0 0.0 16.28999089631971 0.0 0.0 0.0 34.24959146834617" Properties=species:S:1:pos:R:3:initial_magmoms:R:1 pbc="T T T"
Si       2.20588103      -0.69530607       0.04164753       0.00000000
Si      -0.93042357       1.18535814       1.79824156       0.00000000
Si      -1.31584497      -1.90625580      -0.38212291       0.00000000
Si      -0.56847376       0.98347617      -2.09340470       0.00000000
Si      -0.75309957      -1.64755431      -2.62711638       0.00000000
Si      -0.50754916       3.24420237       0.66488769       0.00000000
Si      -1.97682801       2.66659155      -1.08266444       0.00000000
Si      -2.43426750      -0.75676824       2.41233707       0.00000000
Si       2.65006046      -0.08715150       2.35037953       0.00000000
Si       3.53995058       0.41782221      -1.57568759       0.00000000
