10
Lattice="16.28999089631971 0.0 0.0 0.0 16.28999089631971 0.0 0.0 0.0 34.24959146834617" Properties=species:S:1:pos:R:3:initial_magmoms:R:1 pbc="T T T"
Si       0.70757570       1.98224865       1.31370002       0.00000000
Si      -1.95643456      -0.70587828       1.36496827       0.00000000
Si       1.68606550      -1.88564895      -0.07997284       0.00000000
Si      -0.87318214      -0.52000938      -2.32873377       0.00000000
Si      -0.29797342       1.70629605      -2.41137808       0.00000000
Si       2.02833469       0.62745822       2.76111939       0.00000000
Si      -0.69323252      -2.10344625       2.77356913       0.00000000
Si       3.28906666      -0.71891028       1.21714695       0.00000000
Si       0.68424516      -3.51677642       1.37424649       0.00000000
Si      -3.03870958      -2.34461970      -0.03558535       0.00000000
