10
Lattice="16.28999089631971 0.0 0.0 0.0 16.28999089631971 0.0 0.0 0.0 34.24959146834617" Properties=species:S:1:pos:R:3:initial_magmoms:R:1 pbc="T T T"
Si       1.29634191       1.34869797       1.38142379       0.00000000
Si      -0.91500930      -1.78730622       1.23915091       0.00000000
Si      -1.27429177       1.43635446      -1.39988433       0.00000000
Si       1.45230237      -1.25789751      -1.40974822       0.00000000
Si      -0.40607712       2.53798200       2.33034351       0.00000000
Si      -2.63753738      -2.60177364      -0.13275149       0.00000000
Si       1.42042284       0.00179190       3.44479159       0.00000000
Si       0.92610279      -3.34917513       1.42009160       0.00000000
Si       2.74062960      -2.56691304       0.08832975       0.00000000
Si       0.09585036      -2.62299951      -2.77784892       0.00000000
