10
Lattice="16.28999089631971 0.0 0.0 0.0 16.28999089631971 0.0 0.0 0.0 34.24959146834617" Properties=species:S:1:pos:R:3:initial_magmoms:R:1 pbc="T T T"
Si       1.34787858       1.35075051      -1.37813583       0.00000000
Si      -1.36082980      -1.37034241      -1.38166354       0.00000000
Si       1.60198629      -1.22649104       1.34789343       0.00000000
Si      -1.51317388       1.31369076       1.38690373       0.00000000
Si       0.11614770      -2.57879564       2.53988262       0.00000000
Si       2.70348351       2.71564074       0.00911040       0.00000000
Si      -2.69929765      -2.72592692      -0.03740057       0.00000000
Si       2.70876147      -0.00849524      -2.73870161       0.00000000
Si      -0.00559073       2.70839169      -2.73952360       0.00000000
Si      -2.72024659      -0.00760254      -2.73863311       0.00000000
