10
Lattice="16.28999089631971 0.0 0.0 0.0 16.28999089631971 0.0 0.0 0.0 34.24959146834617" Properties=species:S:1:pos:R:3:initial_magmoms:R:1 pbc="T T T"
Si       1.35550575       1.35816246       1.35645583       0.00000000
Si       1.35695393      -1.35746199      -1.35707232       0.00000000
Si      -1.35758627      -1.35731538       1.35710657       0.00000000
Si      -1.35810755       1.35751086      -1.35700382       0.00000000
Si       0.00261244       2.70982107       2.71469264       0.00000000
Si      -0.00165554      -2.71207323       2.71328840       0.00000000
Si      -2.71407086      -0.00060273      -2.71315140       0.00000000
Si      -0.00083543      -2.71366965      -2.71404189       0.00000000
Si      -0.00177883       2.71533797      -2.71390490       0.00000000
Si       2.71506752       2.71441765      -0.00006850       0.00000000
