10
Lattice="16.28999089631971 0.0 0.0 0.0 16.28999089631971 0.0 0.0 0.0 34.24959146834617" Properties=species:S:1:pos:R:3:initial_magmoms:R:1 pbc="T T T"
Si      -1.12643721       1.51297286       1.36306600       0.00000000
Si      -1.37578824      -1.33809318      -1.36186727       0.00000000
Si       1.34008056       1.37148581      -1.36710746       0.00000000
Si       1.40186853      -1.38088701       1.60038155       0.00000000
Si       2.21309424       0.50011929       2.82309265       0.00000000
Si      -2.61227580       0.16066827       2.55505520       0.00000000
Si       0.58341006       2.40687586       2.89131788       0.00000000
Si       2.70156618      -2.69506647       0.01544657       0.00000000
Si       2.69596242       0.01873350      -2.72411128       0.00000000
Si      -0.01894527      -2.69842221      -2.72400853       0.00000000
