10
Lattice="16.28999089631971 0.0 0.0 0.0 16.28999089631971 0.0 0.0 0.0 34.24959146834617" Properties=species:S:1:pos:R:3:initial_magmoms:R:1 pbc="T T T"
Si      -1.35289332       1.35165861       1.35823681       0.00000000
Si      -1.35550575      -1.35816246      -1.35645583       0.00000000
Si       1.35956177       1.35625519      -1.35652433       0.00000000
Si       1.36057175      -1.35555606       1.36286051       0.00000000
Si      -2.69136117      -0.00392589       2.70249977       0.00000000
Si      -2.71231011       2.71439848       0.00126724       0.00000000
Si      -2.71361331      -0.00065160      -2.71345965       0.00000000
Si       0.00148076       2.71430726      -2.71376790       0.00000000
Si      -2.71309203      -2.71547784       0.00065074       0.00000000
Si       0.00144818      -2.71562445      -2.71352815       0.00000000
