10
Lattice="16.28999089631971 0.0 0.0 0.0 16.28999089631971 0.0 0.0 0.0 34.24959146834617" Properties=species:S:1:pos:R:3:initial_magmoms:R:1 pbc="T T T"
Si      -0.73407138       1.77016914      -1.18832449       0.00000000
Si       1.70241903      -1.18928403      -0.94891971       0.00000000
Si       0.19152153       0.82604961       2.13111352       0.00000000
Si       0.24190650      -1.43148375       2.74788051       0.00000000
Si      -2.07831762       1.40608764       1.95072082       0.00000000
Si      -2.21546348       0.28566144      -2.35298250       0.00000000
Si       1.82649996      -2.53619010       1.11444808       0.00000000
Si       0.40607712      -2.53798200      -2.33034351       0.00000000
Si      -1.93056211       3.13724404       0.24580946       0.00000000
Si      -3.65390306      -0.46623609       1.23644519       0.00000000
