10
Lattice="10.86 0.0 0.0 0.0 10.86 0.0 0.0 0.0 10.86" Properties=species:S:1:pos:R:3:initial_magmoms:R:1 pbc="T T T"
Si      -2.02448862      -1.15875114       0.53235720       0.00000000
Si       0.69051138      -1.15875114      -2.18264280       0.00000000
Si       1.95806886       0.05137866       1.92026520       0.00000000
Si      -0.66698862      -2.51625114       1.88985720       0.00000000
Si       2.04801138      -2.51625114      -0.82514280       0.00000000
Si      -2.02448862       1.55624886      -2.18264280       0.00000000
Si      -0.66405642       2.78806608       1.76567310       0.00000000
Si       0.69051138      -1.15875114       3.24735720       0.00000000
Si       3.40551138      -1.15875114       0.53235720       0.00000000
Si      -3.38198862       0.19874886       1.88985720       0.00000000
