10
Lattice="10.86 0.0 0.0 0.0 10.86 0.0 0.0 0.0 10.86" Properties=species:S:1:pos:R:3:initial_magmoms:R:1 pbc="T T T"
Si       1.21024926       1.27736406       1.35975888       0.00000000
Si      -1.50475074       1.27736406      -1.35524112       0.00000000
Si      -1.50475074      -1.43763594       1.35975888       0.00000000
Si       1.51737006      -1.70038278      -1.36492824       0.00000000
Si       2.51747832      -0.13252458       2.61850890       0.00000000
Si       2.56774926       2.63486406       0.00225888       0.00000000
Si      -0.14725074       2.63486406      -2.71274112       0.00000000
Si      -0.14725074       2.63486406       2.71725888       0.00000000
Si       2.55307740      -0.22150056      -2.80035960       0.00000000
Si       0.03840096      -2.77016880      -2.62064832       0.00000000
