10
Lattice="10.86 0.0 0.0 0.0 10.86 0.0 0.0 0.0 10.86" Properties=species:S:1:pos:R:3:initial_magmoms:R:1 pbc="T T T"
Si      -1.42142196      -1.35418770      -0.95338854       0.00000000
Si       1.49688810       1.34968080      -0.98143992       0.00000000
Si       1.49934246      -1.10109540       1.58406132       0.00000000
Si      -2.22773352       2.37978438       0.34807386       0.00000000
Si      -2.53485432      -0.07246878      -2.35723902       0.00000000
Si       0.18014568       2.64253122      -2.35723902       0.00000000
Si       0.18014568      -2.78746878      -2.35723902       0.00000000
Si       2.89514568      -0.07246878      -2.35723902       0.00000000
Si      -2.53485432      -2.78746878       0.35776098       0.00000000
Si       2.89514568       2.64253122       0.35776098       0.00000000
