10
Lattice="16.290000149 0.0 0.0 0.0 16.290000149 0.0 0.0 0.0 29.1751946751" Properties=species:S:1:pos:R:3:initial_magmoms:R:1 pbc="T T T"
Si      -1.36208836       1.37000530       1.26217727       0.00000000
Si      -1.41988528      -1.30994407      -1.31431334       0.00000000
Si       1.33804432       1.44739909      -1.25584625       0.00000000
Si       1.29710755      -1.30341178       1.46077282       0.00000000
Si      -2.77755906       0.04378752       2.50075181       0.00000000
Si       2.68206707       0.08239482      -2.60692035       0.00000000
Si      -0.04109967      -2.65689902      -2.63629977       0.00000000
Si       2.68027517      -2.64701099       0.12454891       0.00000000
Si      -0.04940757       2.79024897      -2.60242737       0.00000000
Si      -2.78212026       0.08425188      -2.61920310       0.00000000
