10
Lattice="16.290000149 0.0 0.0 0.0 16.290000149 0.0 0.0 0.0 29.1751946751" Properties=species:S:1:pos:R:3:initial_magmoms:R:1 pbc="T T T"
Si       1.03936717       1.10247463      -0.21172439       0.00000000
H       -0.49884867       1.53114598       1.81732288       0.00000000
Si      -2.21346893      -0.78420061      -1.13176415       0.00000000
Si      -0.95610898       0.24576723       2.47303538       0.00000000
Si       1.05114484      -1.14689746       2.39309534       0.00000000
Si      -0.54120268      -2.46606167      -1.38427546       0.00000000
Si      -0.20046474      -2.70964604       0.97591026       0.00000000
Si       2.20380082       0.93173914       1.81177959       0.00000000
Si       2.53322371       0.02062314      -1.62791751       0.00000000
Si      -0.22024080       2.74613565      -1.36971704       0.00000000
