10
Lattice="16.290000149 0.0 0.0 0.0 16.290000149 0.0 0.0 0.0 29.1751946751" Properties=species:S:1:pos:R:3:initial_magmoms:R:1 pbc="T T T"
Si       0.34950195      -0.88154965      -2.13612023       0.00000000
Si      -1.82483840       1.45308430       0.17070406       0.00000000
Si       1.62183241       1.68752999       0.06818243       0.00000000
Si       0.23192073      -1.51713658       1.83366099       0.00000000
H       -0.90192844      -1.48224340       2.83647078       0.00000000
Si       1.06346008       2.72585459       2.07733221       0.00000000
Si       2.29363202      -0.81853993       2.73377409       0.00000000
Si       1.40519170       0.88018129      -3.31943695       0.00000000
Si      -3.64838988       0.15139926       0.81276257       0.00000000
H       -1.82933444       0.29828619       3.29644690       0.00000000
