10
Lattice="16.290000149 0.0 0.0 0.0 16.290000149 0.0 0.0 0.0 29.1751946751" Properties=species:S:1:pos:R:3:initial_magmoms:R:1 pbc="T T T"
Si      -1.50089545      -1.36216981       1.16108522       0.00000000
Si       1.39245292      -1.35307999      -1.31282541       0.00000000
Si       1.34040637       1.28785483       1.42850506       0.00000000
Si      -1.34216569       1.34724817      -1.38252495       0.00000000
H       -0.85869478      -2.20332026       2.24223041       0.00000000
Si      -0.00768888      -2.72399753      -2.62605927       0.00000000
Si       2.69351894       2.67388949       0.07851045       0.00000000
Si      -2.93246067      -0.13494636       2.44514389       0.00000000
Si       2.74514196      -2.66313809       0.11372491       0.00000000
Si       2.73227285      -0.00420282      -2.68522657       0.00000000
