10
Lattice="16.290000149 0.0 0.0 0.0 16.290000149 0.0 0.0 0.0 29.1751946751" Properties=species:S:1:pos:R:3:initial_magmoms:R:1 pbc="T T T"
Si      -1.48649509       1.80048485      -0.11713841       0.00000000
Si       1.12446613      -1.11620710      -1.75164951       0.00000000
Si      -1.65827315      -1.52638930       0.73139296       0.00000000
Si       1.86167009       0.84189979       1.25467925       0.00000000
H       -0.73430434       0.55317583       2.49497512       0.00000000
H       -1.38784285       0.97090030       2.44082596       0.00000000
Si       2.46488879      -2.53135199      -0.38006526       0.00000000
H        1.36785502       3.21704697      -0.96000978       0.00000000
H        0.79420267       3.34065549       1.36784983       0.00000000
Si       2.55401138       2.70378164      -0.16148470       0.00000000
