10
Lattice="16.290000149 0.0 0.0 0.0 16.290000149 0.0 0.0 0.0 29.1751946751" Properties=species:S:1:pos:R:3:initial_magmoms:R:1 pbc="T T T"
Si       1.36769212       1.35814618       1.32863837       0.00000000
Si       1.37112931      -1.35637057      -1.33263537       0.00000000
Si      -1.34280100       1.38290698      -1.34430545       0.00000000
Si      -1.37485972      -1.33705063       1.36175221       0.00000000
Si      -0.07032393       2.69259041       2.61010044       0.00000000
Si      -0.00228060      -2.70288569      -2.67626978       0.00000000
Si      -2.69060303       0.02117700      -2.69535036       0.00000000
Si      -0.02006928      -2.70414002       2.69899726       0.00000000
Si       2.72012051       0.00855225      -2.68971955       0.00000000
Si       2.72155403       2.70936911      -0.03352230       0.00000000
