10
Lattice="16.290000149 0.0 0.0 0.0 16.290000149 0.0 0.0 0.0 29.1751946751" Properties=species:S:1:pos:R:3:initial_magmoms:R:1 pbc="T T T"
Si       1.40001148       1.34482096       1.26465425       0.00000000
Si       1.25226118      -1.40918275      -1.35673991       0.00000000
Si      -1.31266450       1.26177454      -1.47590308       0.00000000
Si      -1.41069772      -1.40721166       1.25205056       0.00000000
Si      -2.16766145      -0.67507390      -2.51915844       0.00000000
Si      -0.46509579      -2.34551567      -2.64484431       0.00000000
Si      -0.02360421       2.70291827       2.53978530       0.00000000
Si       2.56523519      -0.08664651      -2.72506004       0.00000000
Si       2.72656631      -0.06568128       2.57710038       0.00000000
Si      -2.73561231      -0.04691520       2.61753720       0.00000000
