10
Lattice="16.290000149 0.0 0.0 0.0 16.290000149 0.0 0.0 0.0 29.1751946751" Properties=species:S:1:pos:R:3:initial_magmoms:R:1 pbc="T T T"
H       -0.90187957      -0.07729605       1.22127365       0.00000000
Si      -0.89526583       1.42245910      -1.58963966       0.00000000
Si       0.33490611      -2.12193542      -0.93319778       0.00000000
Si       1.88657750       1.34141635       0.39030575       0.00000000
H        0.98808625       0.35016984       2.45433408       0.00000000
H       -2.16694469      -1.81221365       0.79417797       0.00000000
Si       0.25855488       2.86860712       1.46351529       0.00000000
Si      -0.33689349       0.38413449      -3.59878944       0.00000000
Si      -1.72680518      -2.82053208      -1.83331088       0.00000000
Si       1.56838492      -3.44425989       0.57451793       0.00000000
