10
Lattice="16.290000149 0.0 0.0 0.0 16.290000149 0.0 0.0 0.0 29.1751946751" Properties=species:S:1:pos:R:3:initial_magmoms:R:1 pbc="T T T"
H       -0.39802986       0.51631155      -1.46876683       0.00000000
Si       1.73299538      -1.64817335      -0.04239156       0.00000000
Si      -2.11051613      -1.13598316      -0.57148371       0.00000000
Si       1.55895301       1.76710664      -0.74104994       0.00000000
Si      -1.00354546       1.22388400       1.90187259       0.00000000
H       -0.68971861       0.50505516      -2.87191864       0.00000000
H        0.79443073      -1.51576822      -2.57001372       0.00000000
Si      -2.37425449       2.61649982       0.60658147       0.00000000
Si      -3.47128826       0.86112199      -0.60780683       0.00000000
Si       2.16274187      -1.89499943       2.25391274       0.00000000
