10
Lattice="16.290000149 0.0 0.0 0.0 16.290000149 0.0 0.0 0.0 29.1751946751" Properties=species:S:1:pos:R:3:initial_magmoms:R:1 pbc="T T T"
Si      -1.34717324      -1.34656399       1.36802488       0.00000000
Si       1.35140212      -1.36708939      -1.36230654       0.00000000
Si      -1.36679454       1.34824186      -1.36884178       0.00000000
Si       1.33015996       1.34873056       1.41307138       0.00000000
Si      -2.64763637       2.69570180       0.08589177       0.00000000
Si       0.04746906       2.73513989      -2.62414538       0.00000000
Si       2.70488936       0.04026888      -2.67300800       0.00000000
Si      -2.70858719      -2.67742442      -0.01350812       0.00000000
Si       2.71681364       2.71221986       0.11174100       0.00000000
Si       0.00418653      -2.70441695       2.72796823       0.00000000
