10
Lattice="16.290000149 0.0 0.0 0.0 16.290000149 0.0 0.0 0.0 29.1751946751" Properties=species:S:1:pos:R:3:initial_magmoms:R:1 pbc="T T T"
H       -1.13336373       0.97195915       0.28469155       0.00000000
H        1.53081204      -1.45824823      -0.61705537       0.00000000
Si       1.48140447       1.19356831      -1.39492441       0.00000000
Si       1.26653937       0.18912690       2.03062272       0.00000000
Si      -1.31095698      -1.70763185      -1.13797847       0.00000000
H       -2.30437528      -0.85027285       2.19683381       0.00000000
Si       2.13256464      -2.77237395      -0.18467898       0.00000000
Si       0.05289200       2.41295627      -2.77298555       0.00000000
Si      -2.59839349      -0.36054657      -2.64073440       0.00000000
Si       0.70904669       2.53092845       2.76825917       0.00000000
