10
Lattice="16.290000149 0.0 0.0 0.0 16.290000149 0.0 0.0 0.0 29.1751946751" Properties=species:S:1:pos:R:3:initial_magmoms:R:1 pbc="T T T"
Si      -1.34793080      -1.35270532       1.35825119       0.00000000
Si      -1.36897749       1.35723394      -1.33934566       0.00000000
Si       1.33000838      -1.35057133      -1.39118998       0.00000000
Si       1.31405396       1.36739890       1.39387410       0.00000000
Si       0.02954525       2.69169446      -2.67332309       0.00000000
Si       2.68136815      -2.70842429      -0.03124663       0.00000000
Si      -2.69195356       0.01229895       2.70932528       0.00000000
Si       2.68956202       2.71577108       0.04280001       0.00000000
Si      -2.71809901      -2.70065396       0.00236319       0.00000000
Si       2.70291982       0.01809819       2.72435050       0.00000000
