10
Lattice="16.290000149 0.0 0.0 0.0 16.290000149 0.0 0.0 0.0 29.1751946751" Properties=species:S:1:pos:R:3:initial_magmoms:R:1 pbc="T T T"
Si      -1.28982592      -1.43895696       1.28105362       0.00000000
Si       1.30523626      -1.41222507      -1.33616557       0.00000000
Si      -1.43361775       1.62815684      -0.92625408       0.00000000
Si       1.19149948       1.14603637       1.69166531       0.00000000
Si      -0.80194042       2.03346834       2.66883011       0.00000000
Si      -2.31904442       0.18441486       2.59851789       0.00000000
Si      -0.08527815       2.64815520      -2.55939395       0.00000000
Si       2.62947188       2.57239041       0.34718482       0.00000000
Si       0.23785029      -2.43671947       2.78526831       0.00000000
Si       1.76595005      -0.59360370       3.20921306       0.00000000
