10
Lattice="16.290000149 0.0 0.0 0.0 16.290000149 0.0 0.0 0.0 29.1751946751" Properties=species:S:1:pos:R:3:initial_magmoms:R:1 pbc="T T T"
Si      -1.37129221       1.34682463       1.33642814       0.00000000
Si      -1.38450340      -1.34962651      -1.32627517       0.00000000
Si       1.36397800      -1.36573732       1.33426918       0.00000000
Si       1.36811566       1.35904213      -1.33794525       0.00000000
Si       0.00855225       2.68165982       2.68029596       0.00000000
Si      -0.05476698      -2.76825584      -2.61295961       0.00000000
Si       2.69303024      -0.00125433      -2.70343189       0.00000000
Si      -0.00057015      -2.71303925       2.68432214       0.00000000
Si      -2.72028341      -0.01809819       2.69351232       0.00000000
Si       2.72403011      -0.02173086       2.69707170       0.00000000
