10
Lattice="16.290000149 0.0 0.0 0.0 16.290000149 0.0 0.0 0.0 29.1751946751" Properties=species:S:1:pos:R:3:initial_magmoms:R:1 pbc="T T T"
Si       1.32263398       1.33604065       1.39805782       0.00000000
Si      -1.35502176       1.33226137      -1.39513739       0.00000000
Si       1.41970609      -1.38274408      -1.28054306       0.00000000
Si      -1.36988639      -1.36379881       1.36756975       0.00000000
Si       0.03282435      -2.67727781      -2.64110580       0.00000000
Si       2.67257000       2.65237040      -0.00652066       0.00000000
Si       2.62506836      -2.77899258       0.16340151       0.00000000
Si       0.10694385       2.55634085      -2.85122176       0.00000000
Si      -2.88188022      -0.06180426      -2.52443682       0.00000000
Si      -2.74944252       2.67807602      -0.01058768       0.00000000
