10
Lattice="16.290000149 0.0 0.0 0.0 16.290000149 0.0 0.0 0.0 29.1751946751" Properties=species:S:1:pos:R:3:initial_magmoms:R:1 pbc="T T T"
H       -0.07579737      -1.06559407      -1.07049624       0.00000000
Si       2.18796205       0.17816373       0.68226193       0.00000000
Si      -1.61212357      -0.67109914       1.57298062       0.00000000
Si      -0.45165654       2.13646610      -0.88310397       0.00000000
H       -1.89589538       2.42646068      -0.44413399       0.00000000
H        1.09521418       0.75663793      -2.98263850       0.00000000
Si      -3.14520807      -1.39326742      -0.03746095       0.00000000
H       -1.26527689      -3.23578861       0.68719254       0.00000000
Si       2.99903790      -2.06479010       0.45831313       0.00000000
Si       3.49511727      -0.02619432      -1.23670733       0.00000000
