10
Lattice="16.290000149 0.0 0.0 0.0 16.290000149 0.0 0.0 0.0 29.1751946751" Properties=species:S:1:pos:R:3:initial_magmoms:R:1 pbc="T T T"
Si       1.35763793      -1.24339942       1.45314847       0.00000000
Si      -1.17515133       1.58264030       1.29281123       0.00000000
Si       1.31378525       1.42861672      -1.34777729       0.00000000
Si      -1.45408125      -1.38390067      -1.35349563       0.00000000
Si      -0.52794424       2.59744052      -2.27925373       0.00000000
Si      -1.48123668       3.38753811      -0.28294104       0.00000000
Si       2.80300078      -2.43558308       0.09487773       0.00000000
Si       0.01488254      -2.59564862      -2.69050728       0.00000000
Si      -2.65460539       0.28300617       2.66294547       0.00000000
Si       0.01034741      -2.70029558       2.68977206       0.00000000
