10
Lattice="16.290000149 0.0 0.0 0.0 16.290000149 0.0 0.0 0.0 29.1751946751" Properties=species:S:1:pos:R:3:initial_magmoms:R:1 pbc="T T T"
Si      -1.52685846      -1.39406563      -1.12929943       0.00000000
Si       1.35502176      -1.33226137       1.39513739       0.00000000
Si      -1.39442075       1.34581465       1.38454971       0.00000000
Si       1.46196561       1.22407948      -1.45608437       0.00000000
Si      -2.67110065       0.10192653      -2.51173044       0.00000000
Si       2.65773307       2.66698253       0.01516527       0.00000000
Si      -0.29022753      -2.86795227      -2.42729742       0.00000000
Si       0.09125658       2.61669530      -2.75137549       0.00000000
Si      -0.01486463      -2.69606018       2.76270713       0.00000000
Si       2.67765574       0.00377928       2.79319521       0.00000000
