10
Lattice="16.290000149 0.0 0.0 0.0 16.290000149 0.0 0.0 0.0 29.1751946751" Properties=species:S:1:pos:R:3:initial_magmoms:R:1 pbc="T T T"
Si       1.18615636      -0.51326532       0.79852508       0.00000000
H       -0.80899399       0.74520235      -1.65350416       0.00000000
H        0.62892433       1.65664415      -1.10451452       0.00000000
H       -0.57365236       0.12360852       2.32785961       0.00000000
Si      -1.88763635       0.57980998       1.72285360       0.00000000
Si      -1.65310922      -0.18810063      -2.46492467       0.00000000
Si       2.51960690      -1.58390929      -0.82125256       0.00000000
Si      -1.62061066       2.61009785       0.52836278       0.00000000
Si       0.49381506      -2.37514718       2.21468903       0.00000000
Si      -2.85435012      -1.41656212       0.84287137       0.00000000
