10
Lattice="16.290000149 0.0 0.0 0.0 16.290000149 0.0 0.0 0.0 29.1751946751" Properties=species:S:1:pos:R:3:initial_magmoms:R:1 pbc="T T T"
Si      -1.23663093       1.47388663       1.29799799       0.00000000
Si       1.67807364      -1.14158692       1.18132901       0.00000000
Si       0.64522247       1.73216459      -1.50214325       0.00000000
Si      -1.30897482      -1.95616838      -0.52632051       0.00000000
Si       0.34327917      -2.54550637       2.53146454       0.00000000
Si      -2.54960494       0.15135039       2.66631812       0.00000000
Si       0.18917088       0.88966207      -3.63123225       0.00000000
Si      -0.35568238      -2.74626597      -2.52263321       0.00000000
Si       0.29022753       2.86795227       2.42729742       0.00000000
Si      -2.38087312       2.96987880      -0.08443301       0.00000000
