10
Lattice="16.290000149 0.0 0.0 0.0 16.290000149 0.0 0.0 0.0 29.1751946751" Properties=species:S:1:pos:R:3:initial_magmoms:R:1 pbc="T T T"
Si      -0.84411523      -0.93330298      -0.81142051       0.00000000
H        1.43791831       0.91144180       0.54898964       0.00000000
H        0.80899399      -0.74520235       1.65350416       0.00000000
Si       2.08461503       1.73747513      -0.52795432       0.00000000
Si      -1.09662652       2.74984977      -0.05928400       0.00000000
Si      -0.81161668       1.86489551       2.18186693       0.00000000
Si      -2.14066892       0.36005787      -2.23709558       0.00000000
Si       0.58546261      -2.37827486      -1.93122284       0.00000000
Si      -2.67656105      -1.75835891       0.35013151       0.00000000
Si       1.99515035      -1.25846767       2.45202924       0.00000000
