10
Lattice="16.290000149 0.0 0.0 0.0 16.290000149 0.0 0.0 0.0 29.1751946751" Properties=species:S:1:pos:R:3:initial_magmoms:R:1 pbc="T T T"
Si      -1.30706074      -1.31405078      -1.44601017       0.00000000
Si      -1.32406750       1.39424319       1.36440715       0.00000000
Si       1.26118810      -1.39175408       1.43101412       0.00000000
Si       1.36687762       1.35904050      -1.37739012       0.00000000
Si      -2.66235617      -2.66905299      -0.11214945       0.00000000
Si       2.66144393       0.02487809       2.68901934       0.00000000
Si       2.69114060      -2.67385854       0.01893470       0.00000000
Si      -2.67139712       2.72797067      -0.04294589       0.00000000
Si       0.07607430       2.76516074       2.67764102       0.00000000
Si      -2.68148063       0.03232913      -2.78275924       0.00000000
