10
Lattice="16.290000149 0.0 0.0 0.0 16.290000149 0.0 0.0 0.0 29.1751946751" Properties=species:S:1:pos:R:3:initial_magmoms:R:1 pbc="T T T"
Si      -1.35948196      -1.35462754      -1.35472099       0.00000000
Si      -1.36827856       1.35285193       1.35326223       0.00000000
Si       1.34793235      -1.36036162       1.36653694       0.00000000
Si       1.35519769       1.34423452      -1.37619393       0.00000000
Si       2.69001659       2.69573438       0.01855542       0.00000000
Si      -2.69042384      -2.71181261       0.02999210       0.00000000
Si       0.01760949      -2.71212212      -2.69470851       0.00000000
Si       2.71322984      -0.00504990       2.71375991       0.00000000
Si      -0.02106297       2.69017949      -2.73701254       0.00000000
Si      -2.71963833       2.71070489      -0.00668112       0.00000000
