10
Lattice="16.290000149 0.0 0.0 0.0 16.290000149 0.0 0.0 0.0 29.1751946751" Properties=species:S:1:pos:R:3:initial_magmoms:R:1 pbc="T T T"
Si       1.41547069       1.32621778      -1.23857454       0.00000000
Si      -1.42605919      -1.38984652      -1.17949477       0.00000000
Si       1.29655369      -1.29336085       1.42567506       0.00000000
Si      -1.08304066       1.41929884       1.49887563       0.00000000
H        2.14066892      -0.36005787       2.23709558       0.00000000
Si      -0.53589213      -2.11841678       2.58722709       0.00000000
Si       1.04404240       2.38979189       2.17781158       0.00000000
Si      -2.13873041      -0.34243209       2.68219235       0.00000000
Si       2.64608246       2.46334124       0.38735906       0.00000000
Si       0.00863370      -2.71160084      -2.46159870       0.00000000
