10
Lattice="16.290000149 0.0 0.0 0.0 16.290000149 0.0 0.0 0.0 29.1751946751" Properties=species:S:1:pos:R:3:initial_magmoms:R:1 pbc="T T T"
Si      -2.05672655       0.61205929      -0.89173983       0.00000000
Si       1.02921850      -1.62337182      -1.31746427       0.00000000
Si      -0.52017228      -1.25282319       1.93349850       0.00000000
Si       1.51710400       1.84905348       0.07031222       0.00000000
Si       2.31904442      -0.18441486      -2.59851789       0.00000000
Si      -3.30201561      -1.17178044      -0.04644691       0.00000000
Si       2.55689471      -2.62113433       0.18675042       0.00000000
Si       0.78009553       3.17486401      -1.71914835       0.00000000
Si      -2.14819490       0.27436759       3.00670804       0.00000000
Si       0.88568731       2.91766120       2.11651450       0.00000000
