10
Lattice="16.290000149 0.0 0.0 0.0 16.290000149 0.0 0.0 0.0 29.1751946751" Properties=species:S:1:pos:R:3:initial_magmoms:R:1 pbc="T T T"
Si       1.41959206      -1.37308411       1.25249111       0.00000000
Si       1.37630953       1.31939227      -1.36449468       0.00000000
Si      -1.33851673       1.32923143       1.41094159       0.00000000
Si      -1.35588187      -1.38214135      -1.35157007       0.00000000
Si       0.11590335      -2.60933222       2.75192106       0.00000000
Si      -2.68524200       2.68159466       0.02275665       0.00000000
Si       0.00293220       2.67126680      -2.71040476       0.00000000
Si       2.78466150       2.64450233      -0.00741050       0.00000000
Si      -2.80337056      -0.05426199       2.62681783       0.00000000
Si      -2.72645407      -0.04015485      -2.70880012       0.00000000
