10
Lattice="16.290000149 0.0 0.0 0.0 16.290000149 0.0 0.0 0.0 29.1751946751" Properties=species:S:1:pos:R:3:initial_magmoms:R:1 pbc="T T T"
Si      -0.27510226       0.82256356       2.15213741       0.00000000
Si      -1.77277556      -1.00295902      -1.15519183       0.00000000
Si       1.64644661      -1.66242710       0.10576008       0.00000000
Si       0.91764829       1.73894123      -1.27486848       0.00000000
Si      -0.43332215      -2.30767400      -2.57698660       0.00000000
Si      -2.54469350       1.30579012       2.02747180       0.00000000
Si       2.44198505       0.47115567      -2.49106565       0.00000000
Si       3.46999809      -0.36074205      -0.53629843       0.00000000
Si       1.00409932       2.81525086       2.26860479       0.00000000
Si       0.75834838      -0.72821188       3.62741030       0.00000000
