10
Lattice="16.290000149 0.0 0.0 0.0 16.290000149 0.0 0.0 0.0 29.1751946751" Properties=species:S:1:pos:R:3:initial_magmoms:R:1 pbc="T T T"
Si      -1.36018243      -1.36243045       1.34430545       0.00000000
Si       1.35482302       1.35304741       1.36102283       0.00000000
Si       1.36767583      -1.38018655      -1.32297838       0.00000000
Si      -1.38339568       1.33835383      -1.35089904       0.00000000
Si      -0.01949913       2.70203861      -2.67886638       0.00000000
Si       2.71705799      -0.04114854       2.66591259       0.00000000
Si      -0.00754227      -2.70501968      -2.68840666       0.00000000
Si      -2.73505844       0.00177561       2.67705751       0.00000000
Si      -0.00913869      -2.73901692       2.68651028       0.00000000
Si       2.73013887       2.69638598       0.01989748       0.00000000
