10
Lattice="16.290000149 0.0 0.0 0.0 16.290000149 0.0 0.0 0.0 29.1751946751" Properties=species:S:1:pos:R:3:initial_magmoms:R:1 pbc="T T T"
H        1.19320993      -1.96797863       0.21726767       0.00000000
H       -1.97152985      -0.62125174      -1.08908084       0.00000000
Si       1.88180453       0.69744007       1.27542281       0.00000000
Si      -0.77067991      -1.86961961       1.28178300       0.00000000
Si       0.62444458      -0.33252777      -2.32937672       0.00000000
Si      -1.78015493       1.54613278       0.62513690       0.00000000
H       -2.62506836      -0.20352726      -1.14323000       0.00000000
H        2.83791351       0.45167283      -1.19761257       0.00000000
H        2.33906483       1.98281882       0.61971031       0.00000000
H       -0.44302284       2.16622793      -2.21620614       0.00000000
