10
Lattice="16.290000149 0.0 0.0 0.0 16.290000149 0.0 0.0 0.0 29.1751946751" Properties=species:S:1:pos:R:3:initial_magmoms:R:1 pbc="T T T"
Si      -1.34777597       1.33750675      -1.37461847       0.00000000
Si       1.31320207       1.46681677       1.27863208       0.00000000
Si      -1.40834545      -1.29357262       1.39081071       0.00000000
Si       1.41895675      -1.35526285      -1.33534866       0.00000000
H        2.22226553       0.56975905       2.08669745       0.00000000
H        0.21422979       0.24200424       3.51517333       0.00000000
Si      -2.64026122      -2.65429881      -0.05476184       0.00000000
Si      -0.02871927      -2.74022238       2.55393819       0.00000000
Si      -2.62021802       2.69970914       0.04703041       0.00000000
Si       0.07468965      -2.70081686      -2.72388370       0.00000000
