10
Lattice="16.290000149 0.0 0.0 0.0 16.290000149 0.0 0.0 0.0 29.1751946751" Properties=species:S:1:pos:R:3:initial_magmoms:R:1 pbc="T T T"
Si      -1.66532346      -0.75939094       1.45403335       0.00000000
Si      -0.48328847       0.68144329      -2.24094670       0.00000000
Si       1.09703377       1.75537784       1.21438830       0.00000000
Si       1.36077213      -1.99710515       0.03632312       0.00000000
H       -2.86089544      -1.27255852       0.39444863       0.00000000
H        3.07325840      -0.34481043      -0.86095999       0.00000000
Si       2.46774280       0.36276201       2.50967942       0.00000000
H        2.78156965      -0.35606682      -2.26411181       0.00000000
Si       3.47128826      -0.86112199       0.60780683       0.00000000
Si       0.90472054      -2.83960767      -2.09276589       0.00000000
