10
Lattice="16.290000149 0.0 0.0 0.0 16.290000149 0.0 0.0 0.0 29.1751946751" Properties=species:S:1:pos:R:3:initial_magmoms:R:1 pbc="T T T"
Si      -0.72946621       2.19285719       0.39468203       0.00000000
Si       1.89991901       0.54217845       1.28796814       0.00000000
Si      -1.61227018      -1.48659772       0.94440105       0.00000000
Si       0.73135585       0.33770636      -2.26417016       0.00000000
H        1.46088721      -2.18073092      -1.27335137       0.00000000
H        1.72208108       1.92900806       1.89994703       0.00000000
Si       2.54550800       1.65970178      -1.66088548       0.00000000
Si       1.21907845       3.20945094      -0.49974191       0.00000000
H       -0.42907860      -2.60819681      -2.50641180       0.00000000
Si      -0.39226320      -2.90056973       2.39187144       0.00000000
