10
Lattice="16.290000149 0.0 0.0 0.0 16.290000149 0.0 0.0 0.0 29.1751946751" Properties=species:S:1:pos:R:3:initial_magmoms:R:1 pbc="T T T"
Si      -1.02366361       1.49545459       1.47069239       0.00000000
Si       0.91453690       1.83588302      -1.16843737       0.00000000
Si      -1.33636645      -1.45621198      -1.29742091       0.00000000
Si       1.50430006      -1.31323465       1.29211102       0.00000000
H       -1.91666513       2.33821775       0.58239524       0.00000000
H        2.78285331      -1.01952595      -1.30284749       0.00000000
Si       2.32559300      -2.30490470      -0.64713499       0.00000000
Si       0.44378847      -3.00234477      -1.92255780       0.00000000
Si       0.86913667       2.79467985       2.10344401       0.00000000
Si       2.48034800       2.61221555       0.42341960       0.00000000
