10
Lattice="16.290000149 0.0 0.0 0.0 16.290000149 0.0 0.0 0.0 29.1751946751" Properties=species:S:1:pos:R:3:initial_magmoms:R:1 pbc="T T T"
Si       1.57920148      -1.08592399       1.32178219       0.00000000
Si      -1.23061177      -1.13712346      -1.62593360       0.00000000
Si      -1.60204006      -0.07354935       1.79045252       0.00000000
Si       1.29735190       1.59029497      -1.27635642       0.00000000
H        0.93250477      -1.91195732       2.39872616       0.00000000
H       -0.50541354      -2.82339912       1.84973652       0.00000000
Si      -1.71927920       2.23169092       2.02575047       0.00000000
Si      -2.64608246      -2.46334124      -0.38735906       0.00000000
Si       2.81641071      -2.45211743      -0.09636567       0.00000000
Si       0.13147659      -2.50712876      -2.88811087       0.00000000
