10
Lattice="16.290000149 0.0 0.0 0.0 16.290000149 0.0 0.0 0.0 29.1751946751" Properties=species:S:1:pos:R:3:initial_magmoms:R:1 pbc="T T T"
Si      -1.33981993      -1.34887717       1.37240116       0.00000000
Si       1.32410008      -1.37101528      -1.37301384       0.00000000
Si      -1.35974260       1.32546844      -1.39116081       0.00000000
Si       1.34384356       1.32721147       1.40720716       0.00000000
Si       2.69969285       2.67431303       0.01420832       0.00000000
Si       2.62811459      -2.75129958       0.00242154       0.00000000
Si      -2.73227285       0.00420282       2.68522657       0.00000000
Si      -2.73233801       2.68452686      -0.06932026       0.00000000
Si       2.67779909      -0.02301777      -2.74699045       0.00000000
Si      -0.00576666       2.70023042      -2.73406584       0.00000000
