10
Lattice="16.290000149 0.0 0.0 0.0 16.290000149 0.0 0.0 0.0 29.1751946751" Properties=species:S:1:pos:R:3:initial_magmoms:R:1 pbc="T T T"
Si       2.20385783      -0.38389014       0.80716094       0.00000000
Si       0.04129515       2.30599613       0.63601924       0.00000000
Si       0.14607243      -0.41477598      -2.36068170       0.00000000
Si      -1.51671304      -1.38064593       1.28828907       0.00000000
H       -2.15759423      -0.21996387      -1.44078781       0.00000000
H       -0.89726950       2.43840125      -1.89160292       0.00000000
Si       0.47104164       2.05917005       2.93232354       0.00000000
Si      -0.73174681       1.65467306      -3.16469172       0.00000000
Si       2.11141208       0.32013108       3.03296571       0.00000000
Si       2.45083052      -0.36198009      -2.80423219       0.00000000
