10
Lattice="16.290000149 0.0 0.0 0.0 16.290000149 0.0 0.0 0.0 29.1751946751" Properties=species:S:1:pos:R:3:initial_magmoms:R:1 pbc="T T T"
Si       1.31297401       1.50345298      -1.23705772       0.00000000
Si       1.36985869      -1.34687350       1.37345146       0.00000000
Si      -1.37643985       1.36836001       1.36743554       0.00000000
Si      -1.19576746      -1.44290305      -1.47124963       0.00000000
Si       2.69741225       0.12357594      -2.49667020       0.00000000
Si      -2.65773307      -2.66698253      -0.01516527       0.00000000
Si      -2.56647649      -0.05028723      -2.76654075       0.00000000
Si       0.01992267      -2.66320325       2.77802994       0.00000000
Si       2.71596656       0.01888011       2.74296136       0.00000000
Si      -2.72405781       0.04124628       2.75008011       0.00000000
