10
Lattice="16.290000149 0.0 0.0 0.0 16.290000149 0.0 0.0 0.0 29.1751946751" Properties=species:S:1:pos:R:3:initial_magmoms:R:1 pbc="T T T"
Si      -1.37112931       1.35637057       1.33263537       0.00000000
Si      -1.37340991      -1.34651512      -1.34363442       0.00000000
Si       1.34899120       1.36492282      -1.35708418       0.00000000
Si       1.36925596      -1.34508160       1.36335685       0.00000000
Si      -0.00343719       2.71451675       2.66127373       0.00000000
Si      -0.01280394      -2.70401296      -2.68152132       0.00000000
Si       2.72028341       0.01809819      -2.69351232       0.00000000
Si       2.71971326      -2.69494106      -0.00919019       0.00000000
Si      -2.71728605      -2.70316100       0.02144377       0.00000000
Si      -2.70296714       0.02287116      -2.71796114       0.00000000
