10
Lattice="16.290000149 0.0 0.0 0.0 16.290000149 0.0 0.0 0.0 29.1751946751" Properties=species:S:1:pos:R:3:initial_magmoms:R:1 pbc="T T T"
Si       1.36094806      -1.35166276      -1.35244532       0.00000000
Si       1.37398006       1.36420606       1.33164341       0.00000000
Si      -1.35452980       1.35172792      -1.36922106       0.00000000
Si      -1.35356869      -1.34732962       1.37461847       0.00000000
Si       0.00138465       2.72326448       2.65348396       0.00000000
Si       2.68470605      -2.71625978       0.04017424       0.00000000
Si      -2.71410950      -2.69311169       0.00735215       0.00000000
Si      -2.72375318       0.03986163       2.68537244       0.00000000
Si       0.00089595      -2.69566922      -2.71524784       0.00000000
Si       2.71642268       0.02583594      -2.70900435       0.00000000
