10
Lattice="16.290000149 0.0 0.0 0.0 16.290000149 0.0 0.0 0.0 29.1751946751" Properties=species:S:1:pos:R:3:initial_magmoms:R:1 pbc="T T T"
Si       0.07579737       1.06559407       1.07049624       0.00000000
H        1.17101155       1.82223200      -1.91214226       0.00000000
Si      -2.43799400      -1.39628107      -1.01316699       0.00000000
H       -1.18947952      -2.17019454       1.75768878       0.00000000
Si      -0.44455410      -2.28371304      -1.99033178       0.00000000
Si      -1.53632620       0.39449493       2.64347686       0.00000000
Si       2.26375942       1.24375780       1.75275817       0.00000000
Si      -0.37585917       3.20206017       0.18739228       0.00000000
Si      -3.06941070      -0.32767335       1.03303529       0.00000000
Si       2.30437528       0.85027285      -2.19683381       0.00000000
