10
Lattice="16.290000149 0.0 0.0 0.0 16.290000149 0.0 0.0 0.0 29.1751946751" Properties=species:S:1:pos:R:3:initial_magmoms:R:1 pbc="T T T"
Si      -1.39245292       1.35307999       1.31282541       0.00000000
Si       1.33981993       1.34887717      -1.37240116       0.00000000
Si      -1.40014180      -1.37091754      -1.31323386       0.00000000
Si       1.35268903      -1.31005810       1.42655032       0.00000000
Si       2.58536963      -2.74028265       0.01137833       0.00000000
Si       2.68366349       2.67608864       0.03480601       0.00000000
Si      -2.89334838      -0.00908982       2.47391063       0.00000000
Si      -0.05204655       2.64093482       2.74133047       0.00000000
Si       2.66392001      -0.02213811      -2.74541499       0.00000000
Si      -2.73461862       2.70032816      -0.06969954       0.00000000
