10
Lattice="16.290000149 0.0 0.0 0.0 16.290000149 0.0 0.0 0.0 29.1751946751" Properties=species:S:1:pos:R:3:initial_magmoms:R:1 pbc="T T T"
Si      -1.34644996       1.34472322      -1.36531159       0.00000000
Si      -1.35532801      -1.36976095       1.34725214       0.00000000
Si       1.35690814       1.34770429       1.36817075       0.00000000
Si       1.34469064      -1.30390048      -1.42229074       0.00000000
Si      -2.76902310      -0.11373678      -2.59014169       0.00000000
Si       0.11264535       2.78159946      -2.57976991       0.00000000
Si      -2.70088202       2.67432932       0.03460178       0.00000000
Si       2.69448005      -2.69096141      -0.06520656       0.00000000
Si       0.00778662      -2.71018361       2.70987961       0.00000000
Si      -2.71091666      -0.01703934       2.71235950       0.00000000
