10
Lattice="16.290000149 0.0 0.0 0.0 16.290000149 0.0 0.0 0.0 29.1751946751" Properties=species:S:1:pos:R:3:initial_magmoms:R:1 pbc="T T T"
Si      -1.36842517      -1.34397388       1.34308009       0.00000000
Si      -1.38235312       1.34555401      -1.33657402       0.00000000
Si       1.34996860      -1.36471105      -1.35638398       0.00000000
Si       1.36642150       1.36168111       1.35308718       0.00000000
Si       0.00430056       2.70904331      -2.63790440       0.00000000
Si      -0.00169416      -2.70128927       2.67157258       0.00000000
Si       2.71386515      -0.00102627      -2.68435131       0.00000000
Si      -2.70832655      -2.70759350      -0.02167717       0.00000000
Si      -2.70013268       2.71660187       0.05236947       0.00000000
Si      -2.68677488       0.01892898       2.73391997       0.00000000
