10
Lattice="16.290000149 0.0 0.0 0.0 16.290000149 0.0 0.0 0.0 29.1751946751" Properties=species:S:1:pos:R:3:initial_magmoms:R:1 pbc="T T T"
Si      -1.38908089      -1.35940051       1.31346726       0.00000000
Si      -1.36950031       1.34187247      -1.35346646       0.00000000
Si       1.35226549      -1.36982611      -1.35101574       0.00000000
Si       1.37671678       1.36604683       1.33677824       0.00000000
Si       2.77229739      -0.08407269       2.53036463       0.00000000
Si       0.00755856       2.69780321      -2.68508069       0.00000000
Si      -0.06923250      -2.80013700       2.58944440       0.00000000
Si      -2.68962563       2.71065602       0.03007963       0.00000000
Si      -2.67988421       0.00863370       2.72595514       0.00000000
Si       2.72758133      -0.02648754      -2.69214109       0.00000000
