10
Lattice="16.290000149 0.0 0.0 0.0 16.290000149 0.0 0.0 0.0 29.1751946751" Properties=species:S:1:pos:R:3:initial_magmoms:R:1 pbc="T T T"
Si      -0.45726030      -1.28537875       0.65571250       0.00000000
H        0.49884867      -1.53114598      -1.81732288       0.00000000
Si       1.53821584      -0.42867135      -2.02904726       0.00000000
Si       2.70264949      -0.59940685      -0.00554329       0.00000000
Si      -1.27855324      -0.29370870       2.59495852       0.00000000
Si      -2.33906483      -1.98281882      -0.61971031       0.00000000
Si       1.54999351      -2.67804344       0.57577247       0.00000000
Si      -2.78285331       1.01952595       1.30284749       0.00000000
Si      -1.86831641       2.85540897       0.13441012       0.00000000
Si       0.27860787       1.21498966      -3.18703992       0.00000000
