10
Lattice="16.290000149 0.0 0.0 0.0 16.290000149 0.0 0.0 0.0 29.1751946751" Properties=species:S:1:pos:R:3:initial_magmoms:R:1 pbc="T T T"
Si      -1.28959786      -0.04730616      -0.80532290       0.00000000
Si       2.30366666      -0.19481211      -0.91989389       0.00000000
Si       2.15759423       0.21996387       1.44078781       0.00000000
Si       1.42584742       1.87463693      -1.72390390       0.00000000
H        1.26032473       2.65836512      -0.45081511       0.00000000
Si       0.64088119      -1.16068206       2.72907689       0.00000000
Si      -2.64552698      -1.44028036       0.52722494       0.00000000
Si      -0.68574385      -1.56200250      -2.56578332       0.00000000
Si      -2.10067371       2.19564767      -0.58137410       0.00000000
Si      -0.80379748      -2.60910416       1.45870138       0.00000000
