10
Lattice="10.86 0.0 0.0 0.0 10.86 0.0 0.0 0.0 10.86" Properties=species:S:1:pos:R:3:initial_magmoms:R:1 pbc="T T T"
Si       1.69622340      -0.76339284       1.27333500       0.00000000
Si       0.85280322       0.58150956      -2.21090052       0.00000000
Si      -0.90884082       1.84159536       1.41228870       0.00000000
Si      -2.50711788      -2.27612568      -0.01228266       0.00000000
Si       0.20788212      -2.27612568       2.70271734       0.00000000
Si       0.20788212      -2.27612568      -2.72728266       0.00000000
Si       2.92288212      -2.27612568      -0.01228266       0.00000000
Si      -2.50711788       0.43887432       2.70271734       0.00000000
Si      -2.50711788       0.43887432      -2.72728266       0.00000000
Si       0.80004534       3.08659662      -2.09740266       0.00000000
