10
Lattice="10.86 0.0 0.0 0.0 10.86 0.0 0.0 0.0 10.86" Properties=species:S:1:pos:R:3:initial_magmoms:R:1 pbc="T T T"
Si       1.09922748       1.24008168       1.31306088       0.00000000
Si       1.09922748      -1.47491832      -1.40193912       0.00000000
Si      -1.61577252      -1.47491832       1.31306088       0.00000000
Si       2.45672748       2.59758168      -0.04443912       0.00000000
Si       2.45672748      -0.11741832       2.67056088       0.00000000
Si      -0.54098004       2.47159482      -2.61746634       0.00000000
Si       2.45672748      -0.11741832      -2.75943912       0.00000000
Si       0.14314566       2.33663760       2.92337082       0.00000000
Si       2.45672748      -2.83241832      -0.04443912       0.00000000
Si      -2.84243124       0.03781452       2.59867854       0.00000000
