10
Lattice="10.86 0.0 0.0 0.0 10.86 0.0 0.0 0.0 10.86" Properties=species:S:1:pos:R:3:initial_magmoms:R:1 pbc="T T T"
Si       0.60240420       1.44394560      -1.79820966       0.00000000
Si       0.05275788      -2.50508706      -0.11349786       0.00000000
Si      -2.07661662       1.36357074       0.64686504       0.00000000
Si      -1.68596070      -1.20564462      -1.76560794       0.00000000
Si      -0.59216322       2.78227770       2.08512000       0.00000000
Si       2.12283678       2.78227770      -0.62988000       0.00000000
Si       0.70839780       1.30541544       3.24397974       0.00000000
Si      -0.80004534      -3.08659662       2.09740266       0.00000000
Si      -3.30716322       0.06727770       2.08512000       0.00000000
Si       3.19762926      -1.41620916      -1.84540722       0.00000000
