10
Lattice="10.86 0.0 0.0 0.0 10.86 0.0 0.0 0.0 10.86" Properties=species:S:1:pos:R:3:initial_magmoms:R:1 pbc="T T T"
Si       1.35750000       1.35750000       1.35750000       0.00000000
Si       1.35750000      -1.35750000      -1.35750000       0.00000000
Si      -1.35750000       1.35750000      -1.35750000       0.00000000
Si      -1.35750000      -1.35750000       1.35750000       0.00000000
Si      -2.47422294       0.04522104      -2.64792864       0.00000000
Si      -0.13252458      -2.60420628       2.67250482       0.00000000
Si       2.43229248      -0.12598686       2.85697278       0.00000000
Si       0.13084128      -2.55976716      -2.78688234       0.00000000
Si      -2.45129748       0.08457768       2.93677206       0.00000000
Si       2.71500000      -2.71500000       0.00000000       0.00000000
