10
Lattice="10.86 0.0 0.0 0.0 10.86 0.0 0.0 0.0 10.86" Properties=species:S:1:pos:R:3:initial_magmoms:R:1 pbc="T T T"
Si       1.59933048      -1.20534054       1.03243848       0.00000000
Si      -1.08142794      -1.49355408      -1.52114934       0.00000000
Si       1.95634212       1.51996560      -1.95080352       0.00000000
Si      -2.74331202       2.44542222      -0.10014006       0.00000000
Si       0.15963114      -2.84359326       2.44014426       0.00000000
Si       2.87463114      -0.12859326       2.44014426       0.00000000
Si      -2.55536886      -2.84359326      -0.27485574       0.00000000
Si       2.87463114       2.58640674      -0.27485574       0.00000000
Si      -2.55536886      -0.12859326      -2.98985574       0.00000000
Si       0.15963114       2.58640674      -2.98985574       0.00000000
