10
Lattice="16.28999089631971 0.0 0.0 0.0 16.28999089631971 0.0 0.0 0.0 34.40785480372833" Properties=species:S:1:pos:R:3:initial_magmoms:R:1 pbc="T T T"
Si       1.35518791       1.33080992      -1.37208279       0.00000000
Si       1.46903872      -1.29043320       1.31930111       0.00000000
Si      -1.36876572      -1.37582779      -1.36306793       0.00000000
Si      -1.00972425       1.70605007       1.34699945       0.00000000
Si       0.04376797      -2.58360282       2.63051638       0.00000000
Si       2.69922694       2.67704810      -0.00505796       0.00000000
Si      -2.70462937       2.71210418       0.00082579       0.00000000
Si      -0.00692325       2.69428292      -2.72475954       0.00000000
Si      -2.84746009       0.52176707       2.51414895       0.00000000
Si       2.70644341      -0.01861458      -2.72740895       0.00000000
