10
Lattice="16.28999089631971 0.0 0.0 0.0 16.28999089631971 0.0 0.0 0.0 34.40785480372833" Properties=species:S:1:pos:R:3:initial_magmoms:R:1 pbc="T T T"
Si       0.73667941      -1.54354266       1.64411144       0.00000000
Si      -1.68718203       1.28963043       1.07899652       0.00000000
Si       2.18437171       0.58697757      -0.94256930       0.00000000
Si      -2.24591274      -0.93625146      -0.71289674       0.00000000
Si       0.99691868       1.56934602      -2.62896802       0.00000000
Si      -0.62240247      -3.29804082      -0.51587726       0.00000000
Si      -1.35859644      -1.60410888      -2.71416192       0.00000000
Si      -1.37462580      -2.34616725       2.43380656       0.00000000
Si      -1.38172824       0.91662201       3.37506836       0.00000000
Si      -0.84914298       3.45675985       1.33567926       0.00000000
