10
Lattice="16.28999089631971 0.0 0.0 0.0 16.28999089631971 0.0 0.0 0.0 34.40785480372833" Properties=species:S:1:pos:R:3:initial_magmoms:R:1 pbc="T T T"
Si      -0.08488719       1.45598391       1.82461515       0.00000000
Si      -1.93161933       0.63630369      -1.15324871       0.00000000
Si      -0.00928530      -2.29267089       0.47469103       0.00000000
Si       1.95160716       0.45739062      -1.42465802       0.00000000
Si      -1.46644209       2.95644996      -0.97642665       0.00000000
Si      -1.03982328       0.08001648      -3.33123273       0.00000000
Si       0.08760762       3.49989740       0.72053529       0.00000000
Si       2.23598169      -2.68499925       1.08752967       0.00000000
Si       1.53254691       0.57344058       3.27325546       0.00000000
Si      -0.24509934      -3.25052289      -1.67091518       0.00000000
