10
Lattice="16.28999089631971 0.0 0.0 0.0 16.28999089631971 0.0 0.0 0.0 34.40785480372833" Properties=species:S:1:pos:R:3:initial_magmoms:R:1 pbc="T T T"
Si       0.00928530       2.29267089      -0.47469103       0.00000000
Si       2.24526699      -0.39232836       0.61283864       0.00000000
Si      -0.23581404      -0.95785200      -2.14560621       0.00000000
Si      -1.34431596      -1.30888521       1.57044419       0.00000000
Si      -2.44840166      -1.51322697      -1.87753446       0.00000000
Si      -2.04897249      -3.03137352       0.01476098       0.00000000
Si       3.51191223      -0.89959896      -1.27680739       0.00000000
Si       2.26771461      -2.16441972       2.23424089       0.00000000
Si       0.62068158      -3.14761896      -2.13108609       0.00000000
Si      -1.92233403       2.92897458      -1.62793974       0.00000000
