10
Lattice="16.28999089631971 0.0 0.0 0.0 16.28999089631971 0.0 0.0 0.0 34.40785480372833" Properties=species:S:1:pos:R:3:initial_magmoms:R:1 pbc="T T T"
Si      -0.88549182      -1.71062105       1.28434271       0.00000000
Si       0.83704536       1.77070671       1.27543107       0.00000000
Si       1.29775914      -1.40120227      -1.36933016       0.00000000
Si      -1.45464813       1.29257892      -1.38701581       0.00000000
Si      -1.16045073       3.25863531       1.14922299       0.00000000
Si       2.62464480       2.69547372       0.03678202       0.00000000
Si      -1.64141298      -0.80617581       3.31599004       0.00000000
Si      -2.68483635      -2.67490238      -0.06265674       0.00000000
Si       2.62633896      -0.05284476      -2.74712466       0.00000000
Si      -0.08623926       2.67131565      -2.74623006       0.00000000
