10
Lattice="16.28999089631971 0.0 0.0 0.0 16.28999089631971 0.0 0.0 0.0 34.40785480372833" Properties=species:S:1:pos:R:3:initial_magmoms:R:1 pbc="T T T"
Si      -1.69490512       1.00605411      -1.34617366       0.00000000
Si       1.00972425      -1.70605007      -1.34699945       0.00000000
Si      -1.83773584      -1.18428300       1.16714950       0.00000000
Si       2.07177360       2.02732308      -0.00492033       0.00000000
Si       1.46677929       0.06796188       3.05421494       0.00000000
Si      -0.67316374      -1.09263546       3.23303266       0.00000000
Si      -0.36284330       2.35066329      -2.71956396       0.00000000
Si       2.36491215      -0.37524015      -2.71908225       0.00000000
Si      -3.04560676       2.37089547       0.11158474       0.00000000
Si       2.47876296      -2.99648327      -0.02769834       0.00000000
