10
Lattice="16.28999089631971 0.0 0.0 0.0 16.28999089631971 0.0 0.0 0.0 34.40785480372833" Properties=species:S:1:pos:R:3:initial_magmoms:R:1 pbc="T T T"
Si       1.35744570       1.35760860      -1.35842287       0.00000000
Si      -1.35749457      -1.35772263      -1.35859491       0.00000000
Si       1.35982404      -1.35382932       1.36024648       0.00000000
Si      -1.35596331       1.35971001       1.36186365       0.00000000
Si       2.71687878       2.71292031      -0.00096342       0.00000000
Si      -2.71595351       2.71384884      -0.00289026       0.00000000
Si      -2.71473502      -2.71533123      -0.00024086       0.00000000
Si      -2.71477900      -0.00037467      -2.71595113       0.00000000
Si       2.71515204       0.00019548      -2.71574468       0.00000000
Si       0.00021177       2.71507059      -2.71598554       0.00000000
