10
Lattice="16.28999089631971 0.0 0.0 0.0 16.28999089631971 0.0 0.0 0.0 34.40785480372833" Properties=species:S:1:pos:R:3:initial_magmoms:R:1 pbc="T T T"
Si       1.34982198       1.35213516      -1.36599260       0.00000000
Si      -1.36344042      -1.35967743      -1.35773471       0.00000000
Si      -1.48752135       1.21220406       1.37923963       0.00000000
Si       1.34744364      -1.33551936       1.42527737       0.00000000
Si      -0.44015580      -2.26028637       2.66392642       0.00000000
Si      -2.43765189      -0.77235777       2.53771834       0.00000000
Si       2.67348222       2.71314837      -0.00626223       0.00000000
Si       2.70539433      -0.00504990      -2.71877257       0.00000000
Si       2.70739800      -2.71668330       0.02363821       0.00000000
Si      -0.00638568       2.70707220      -2.71894461       0.00000000
