10
Lattice="16.28999089631971 0.0 0.0 0.0 16.28999089631971 0.0 0.0 0.0 34.40785480372833" Properties=species:S:1:pos:R:3:initial_magmoms:R:1 pbc="T T T"
Si      -1.33794657       1.51817913      -1.21662802       0.00000000
Si      -1.62893484      -1.51565418       0.85441633       0.00000000
Si       1.28417328      -1.52645445      -1.39365653       0.00000000
Si       0.25868520      -1.01955852       2.60622442       0.00000000
Si       1.00176984       1.22259708       2.77110695       0.00000000
Si       2.24494119      -2.15906031       1.77014749       0.00000000
Si      -2.61131958      -0.01352070      -2.69055812       0.00000000
Si      -0.73761120      -3.73032855       0.33874552       0.00000000
Si       0.14437827       2.79373500      -2.64995683       0.00000000
Si       2.66129730      -0.19857510      -2.81366949       0.00000000
