10
Lattice="16.28999089631971 0.0 0.0 0.0 16.28999089631971 0.0 0.0 0.0 34.40785480372833" Properties=species:S:1:pos:R:3:initial_magmoms:R:1 pbc="T T T"
Si       0.74308464       2.24215560       0.16488253       0.00000000
Si       1.98625599      -1.13950179      -0.83607693       0.00000000
Si       0.06219522      -0.37577772       2.43542373       0.00000000
Si      -1.88762004      -0.49609566      -1.75180809       0.00000000
Si      -0.25868520       1.01955852      -2.60622442       0.00000000
Si       0.80488890      -2.58694974       2.36764022       0.00000000
Si      -0.99629640      -2.71077003      -2.26747890       0.00000000
Si       2.87626014       2.22645204       1.23076965       0.00000000
Si      -1.16243811      -3.44318472       1.39441350       0.00000000
Si       2.76628635      -2.54159838       1.09781763       0.00000000
