10
Lattice="16.28999089631971 0.0 0.0 0.0 16.28999089631971 0.0 0.0 0.0 34.40785480372833" Properties=species:S:1:pos:R:3:initial_magmoms:R:1 pbc="T T T"
Si      -2.27211242       0.80448165       0.24653242       0.00000000
Si      -0.60108471      -0.55692252      -2.29658796       0.00000000
Si       1.58897547       1.79815536      -0.60502806       0.00000000
Si       0.37678770      -1.66959468       1.92171417       0.00000000
Si      -0.83770673       2.18101923      -1.66699268       0.00000000
Si       1.69181424       0.59491080       2.29875566       0.00000000
Si       1.45432233      -1.75264110      -1.99985445       0.00000000
Si       3.03358896      -0.16197147      -0.83476943       0.00000000
Si      -0.70310898      -3.44693468       0.73987252       0.00000000
Si       1.97048727       2.77232994       1.49567588       0.00000000
