10
Lattice="16.28999089631971 0.0 0.0 0.0 16.28999089631971 0.0 0.0 0.0 34.40785480372833" Properties=species:S:1:pos:R:3:initial_magmoms:R:1 pbc="T T T"
Si      -1.35638685       1.35775088       1.35656484       0.00000000
Si      -1.35635427      -1.35741312      -1.35735622       0.00000000
Si       1.35741312      -1.35746199       1.35694333       0.00000000
Si       1.35918873       1.35627241      -1.35831964       0.00000000
Si      -0.00083079      -2.71181259      -2.71557264       0.00000000
Si      -2.71295126       0.00021177       2.71491889       0.00000000
Si      -0.00079821      -2.71396287       2.71402429       0.00000000
Si      -2.71442876      -2.71480995      -0.00037849       0.00000000
Si      -0.00131949       2.71726715       2.71220067       0.00000000
Si       2.71489140       0.00050499       2.71460922       0.00000000
