10
Lattice="16.28999089631971 0.0 0.0 0.0 16.28999089631971 0.0 0.0 0.0 34.40785480372833" Properties=species:S:1:pos:R:3:initial_magmoms:R:1 pbc="T T T"
Si       1.11386133       1.63121544      -1.17072791       0.00000000
Si      -0.68636775      -1.44612846      -1.67697096       0.00000000
Si       1.55351214      -1.29603240       1.13563188       0.00000000
Si      -1.78165522       1.01142981       1.25502721       0.00000000
Si      -1.99492097      -0.85804317       2.69159035       0.00000000
Si       0.11163537      -1.93433650       2.88513465       0.00000000
Si      -0.71842321       3.00262167      -1.76316269       0.00000000
Si      -2.79227609      -0.56759247      -2.18101191       0.00000000
Si      -0.88463985       2.89945710       2.35652648       0.00000000
Si       0.65648700      -1.21901328      -3.61492565       0.00000000
