10
Lattice="16.28999089631971 0.0 0.0 0.0 16.28999089631971 0.0 0.0 0.0 34.40785480372833" Properties=species:S:1:pos:R:3:initial_magmoms:R:1 pbc="T T T"
Si       2.29998510       0.54498195       0.35553656       0.00000000
Si      -1.75659957       0.78594363       1.72521080       0.00000000
Si      -0.57686148       0.65420640      -2.43325604       0.00000000
Si      -0.65858841      -2.77821063       1.58603095       0.00000000
Si      -2.08803591      -1.32791193       2.79557095       0.00000000
Si      -3.62853234       1.14241770       0.32646191       0.00000000
Si       2.46860289       1.09309158       2.83255941       0.00000000
Si       3.17488842       1.75131576      -1.74905546       0.00000000
Si       1.47458709      -2.79391419       2.65191808       0.00000000
Si       3.94486785      -1.20655143       0.68234255       0.00000000
