10
Lattice="16.28999089631971 0.0 0.0 0.0 16.28999089631971 0.0 0.0 0.0 34.40785480372833" Properties=species:S:1:pos:R:3:initial_magmoms:R:1 pbc="T T T"
Si      -0.96658344      -1.70452044       1.28386586       0.00000000
Si      -1.64111976       1.70254935       0.22643723       0.00000000
Si       0.42197616      -1.13404464      -2.07899256       0.00000000
Si       1.81426617       1.03079862       1.20486538       0.00000000
Si       2.73448827      -1.10451087      -1.95798007       0.00000000
Si      -2.27058165      -0.34580412       2.71904237       0.00000000
Si       0.47464173       2.35664705       2.71873270       0.00000000
Si      -1.47499434       3.06441031      -1.63058915       0.00000000
Si      -2.98243836      -2.47684563       0.06462904       0.00000000
Si      -2.44063296       1.30631139      -2.80265897       0.00000000
