10
Lattice="16.28999089631971 0.0 0.0 0.0 16.28999089631971 0.0 0.0 0.0 34.40785480372833" Properties=species:S:1:pos:R:3:initial_magmoms:R:1 pbc="T T T"
Si       2.23801794       0.73010151       0.02405110       0.00000000
Si      -1.06587099       2.05084584      -0.53741658       0.00000000
Si       0.34454979      -1.95014825      -1.35123162       0.00000000
Si      -1.14811920      -0.60536572       2.04128153       0.00000000
Si       2.97295758      -0.22611823       1.96062948       0.00000000
Si      -0.85550193       3.09308004       1.63557829       0.00000000
Si      -3.15739296       1.42197039      -1.39868008       0.00000000
Si       3.29071032      -0.34359520      -1.76099499       0.00000000
Si      -1.30212486       1.42267086       3.29018414       0.00000000
Si      -3.21145947      -1.60143993       1.31018303       0.00000000
