10
Lattice="16.28999089631971 0.0 0.0 0.0 16.28999089631971 0.0 0.0 0.0 34.40785480372833" Properties=species:S:1:pos:R:3:initial_magmoms:R:1 pbc="T T T"
Si      -0.73493964       0.95621974      -1.93657837       0.00000000
Si      -1.12629060      -0.25320036       2.00959188       0.00000000
Si       2.11406733       1.02041863       0.38399187       0.00000000
Si      -0.00055386      -2.35153710      -0.37845221       0.00000000
Si       2.20542165      -1.85514822      -1.44571564       0.00000000
Si       0.86426595      -1.09017078       3.04716132       0.00000000
Si      -2.97295758       0.22611823      -1.96062948       0.00000000
Si       2.90810709      -0.35937043       2.09592124       0.00000000
Si       0.31775274      -0.11747696      -3.72162447       0.00000000
Si      -0.11512143       3.24182077      -1.92694417       0.00000000
