10
Lattice="16.28999089631971 0.0 0.0 0.0 16.28999089631971 0.0 0.0 0.0 34.40785480372833" Properties=species:S:1:pos:R:3:initial_magmoms:R:1 pbc="T T T"
Si      -1.88722908       0.93592566      -1.07197732       0.00000000
Si       1.64364471      -0.20991294      -1.73690948       0.00000000
Si      -0.56187468      -2.16272882       0.89305637       0.00000000
Si       1.09416672      -1.17726201       2.30790815       0.00000000
Si       2.41839711       0.85880880       1.60309726       0.00000000
Si       2.98871001       1.60629174      -1.00687762       0.00000000
Si      -2.74191651      -0.88456329      -2.33027327       0.00000000
Si      -0.81498870      -0.29014119       3.61227625       0.00000000
Si      -3.61276362       1.36107837       0.55575598       0.00000000
Si      -0.27961785      -3.77353682      -1.02005583       0.00000000
