10
Lattice="16.28999089631971 0.0 0.0 0.0 16.28999089631971 0.0 0.0 0.0 34.40785480372833" Properties=species:S:1:pos:R:3:initial_magmoms:R:1 pbc="T T T"
Si      -1.65604140      -0.98546681      -1.41485178       0.00000000
Si       1.04285322      -1.74545705       1.30423047       0.00000000
Si      -1.90915542       0.88712082       1.30436810       0.00000000
Si       1.32423039       2.03607081      -0.70481089       0.00000000
Si      -1.09416672       1.17726201      -2.30790815       0.00000000
Si      -0.44593875       2.19250368       2.69044255       0.00000000
Si       2.27726055      -0.58701341       2.92002220       0.00000000
Si      -3.66329520      -1.16917240      -0.10153764       0.00000000
Si       0.83929338       3.65728419       1.05508305       0.00000000
Si       2.78475921      -2.79976949      -0.19388837       0.00000000
