10
Lattice="16.28999089631971 0.0 0.0 0.0 16.28999089631971 0.0 0.0 0.0 34.40785480372833" Properties=species:S:1:pos:R:3:initial_magmoms:R:1 pbc="T T T"
Si       1.44187677       0.63830410      -1.74950276       0.00000000
Si       1.55404971       0.54344743       1.69696194       0.00000000
Si      -0.46517724      -2.32014627      -0.17682206       0.00000000
Si      -2.10655634       1.07629333      -0.19354429       0.00000000
Si       1.46644209      -2.95644996       0.97642665       0.00000000
Si       1.38155490      -1.50046605       2.80104180       0.00000000
Si      -0.11163537       1.93433650      -2.88513465       0.00000000
Si       2.29948011      -1.47164904      -2.30869953       0.00000000
Si       0.42661881      -2.87643348      -2.35480608       0.00000000
Si       0.89741610       2.71645198       2.44739767       0.00000000
