10
Lattice="16.28999089631971 0.0 0.0 0.0 16.28999089631971 0.0 0.0 0.0 34.40785480372833" Properties=species:S:1:pos:R:3:initial_magmoms:R:1 pbc="T T T"
Si      -1.35557235       1.35718506       1.35277998       0.00000000
Si      -1.35620766      -1.35786924      -1.35749385       0.00000000
Si       1.35837423       1.35635427      -1.35735622       0.00000000
Si       1.35843939      -1.35674523       1.35993681       0.00000000
Si      -2.71178001       2.71212210      -0.00017204       0.00000000
Si      -2.70539433       0.00504990       2.71877257       0.00000000
Si      -2.71215468      -2.71599912       0.00041289       0.00000000
Si       0.00144981       2.71366965      -2.71457481       0.00000000
Si      -2.71350675      -0.00060273      -2.71495330       0.00000000
Si       2.71565703       2.71378368       0.00058493       0.00000000
