10
Lattice="16.28999089631971 0.0 0.0 0.0 16.28999089631971 0.0 0.0 0.0 34.40785480372833" Properties=species:S:1:pos:R:3:initial_magmoms:R:1 pbc="T T T"
Si      -0.83081443      -1.84100946       1.28483616       0.00000000
Si      -0.52977361      -1.08406692      -2.07056264       0.00000000
Si       2.23427124       0.74671731       0.63498497       0.00000000
Si      -1.77730742       1.76823063       0.16100859       0.00000000
Si      -2.03948261      -0.49078512       2.74633814       0.00000000
Si       0.70975530       2.19644586       2.73978344       0.00000000
Si      -2.66819516      -2.50192083      -0.17933384       0.00000000
Si       3.62441097      -0.12971727      -1.22423216       0.00000000
Si      -0.73675272       3.45437595       1.47528030       0.00000000
Si      -3.49499411       0.73775781       1.42128059       0.00000000
