10
Lattice="16.28999089631971 0.0 0.0 0.0 16.28999089631971 0.0 0.0 0.0 34.40785480372833" Properties=species:S:1:pos:R:3:initial_magmoms:R:1 pbc="T T T"
Si       0.64050651       2.09376999      -0.89518966       0.00000000
Si       0.59127813      -0.35352558       2.26758212       0.00000000
Si      -2.36931534       0.08231337       0.01888992       0.00000000
Si       1.00406673      -1.89547182      -1.11794624       0.00000000
Si      -0.02854008      -2.63912661       2.25794792       0.00000000
Si      -3.02599782       2.31555834       0.56907183       0.00000000
Si       0.62330427       3.70030608       0.88779197       0.00000000
Si       1.02415230      -3.71282332       0.47290182       0.00000000
Si       3.16519587      -1.12889700      -1.96881855       0.00000000
Si       3.04502454       1.29894831      -2.15193726       0.00000000
