10
Lattice="16.28999089631971 0.0 0.0 0.0 16.28999089631971 0.0 0.0 0.0 34.40785480372833" Properties=species:S:1:pos:R:3:initial_magmoms:R:1 pbc="T T T"
Si       2.09877102       0.89938719       0.42221902       0.00000000
Si      -0.03508866      -2.33409636      -0.05147418       0.00000000
Si      -1.03107555       0.60088923       2.02992694       0.00000000
Si      -0.71539164       0.82179792      -2.09251486       0.00000000
Si      -3.15897309       0.95000022       1.18521363       0.00000000
Si       3.18930507       0.31089465      -1.59497700       0.00000000
Si       1.43293356       0.96492186      -3.15248383       0.00000000
Si       0.42290469      -2.86425441       2.18228500       0.00000000
Si       2.58163920       0.00281817       2.56964885       0.00000000
Si      -1.51607772       2.96756559      -1.52695263       0.00000000
