10
Lattice="16.28999089631971 0.0 0.0 0.0 16.28999089631971 0.0 0.0 0.0 34.40785480372833" Properties=species:S:1:pos:R:3:initial_magmoms:R:1 pbc="T T T"
Si      -1.35689184      -1.35742941       1.35783793       0.00000000
Si       1.35809730       1.35786924       1.35776912       0.00000000
Si      -1.35922131       1.35944937      -1.36165721       0.00000000
Si       1.35860229      -1.36019871      -1.36251740       0.00000000
Si      -2.71430496      -2.71298547       0.00058493       0.00000000
Si       2.71342530       2.71575477       0.00024086       0.00000000
Si       0.00003258      -2.71474479       2.71505652       0.00000000
Si      -2.71497285       0.00053757       2.71495330       0.00000000
Si       2.71466334      -2.71542897       0.00041289       0.00000000
Si       2.71539639       0.00055386       2.71519416       0.00000000
