10
Lattice="16.28999089631971 0.0 0.0 0.0 16.28999089631971 0.0 0.0 0.0 34.40785480372833" Properties=species:S:1:pos:R:3:initial_magmoms:R:1 pbc="T T T"
Si      -1.27278657       1.35653346      -1.41440448       0.00000000
Si       1.07284311       1.88320545       1.03898016       0.00000000
Si       1.46570904      -1.36537893      -1.38643088       0.00000000
Si      -1.33291296      -1.29946959       1.62821501       0.00000000
Si       0.00413766      -0.07079634       3.26775020       0.00000000
Si       2.31726879       0.69734232       2.64018499       0.00000000
Si      -0.90386694       3.35570742       1.19216402       0.00000000
Si      -2.59882515      -2.69213427       0.01713512       0.00000000
Si      -2.59644681      -0.00447975      -2.77413484       0.00000000
Si      -2.78366778       2.59535538      -0.02243393       0.00000000
