10
Lattice="16.28999089631971 0.0 0.0 0.0 16.28999089631971 0.0 0.0 0.0 34.40785480372833" Properties=species:S:1:pos:R:3:initial_magmoms:R:1 pbc="T T T"
Si      -2.12789754       0.34911099      -0.84471331       0.00000000
Si       1.03107555      -0.60088923      -2.02992694       0.00000000
Si       1.00475091       1.52158374       1.57825477       0.00000000
Si      -0.13414815      -2.08308375       1.21889894       0.00000000
Si      -2.86542729       0.85125024       1.31561947       0.00000000
Si       3.12984657       0.29849796      -1.60770791       0.00000000
Si       2.45684151      -0.04711068       2.54150321       0.00000000
Si       3.61271475      -0.59807106       0.53972191       0.00000000
Si       0.99598689      -2.93498559      -2.08140112       0.00000000
Si      -2.65054590      -1.69401339      -2.02600444       0.00000000
