10
Lattice="16.28999089631971 0.0 0.0 0.0 16.28999089631971 0.0 0.0 0.0 34.40785480372833" Properties=species:S:1:pos:R:3:initial_magmoms:R:1 pbc="T T T"
Si       1.35565380       1.35149985       1.38954479       0.00000000
Si      -1.36282140      -1.36221867       1.38472769       0.00000000
Si       1.52101359      -1.20137121      -1.43948094       0.00000000
Si      -1.35444834       1.37430585      -1.48696380       0.00000000
Si       0.05527197      -2.36895696      -2.89531735       0.00000000
Si      -2.69407278       2.70015428       0.02690352       0.00000000
Si       2.72577312       2.68755810       0.02291220       0.00000000
Si      -2.72197755      -2.71542897       0.00984409       0.00000000
Si       2.72531700      -2.72644101      -0.01467496       0.00000000
Si       2.70982521      -0.00591327       2.74662575       0.00000000
