10
Lattice="16.28999089631971 0.0 0.0 0.0 16.28999089631971 0.0 0.0 0.0 34.40785480372833" Properties=species:S:1:pos:R:3:initial_magmoms:R:1 pbc="T T T"
Si      -0.96741423      -2.12299425       0.25592577       0.00000000
Si       2.00142198       0.58616307      -1.09764559       0.00000000
Si      -1.64488275       1.75153338      -0.32680599       0.00000000
Si       1.12324437      -0.87623910       2.59755363       0.00000000
Si       0.78205032       1.60524918       2.51118987       0.00000000
Si       1.06512165      -2.78052381       1.16611726       0.00000000
Si      -1.47626496       2.29964301       2.15021686       0.00000000
Si      -2.47028076      -1.58736276       1.96957553       0.00000000
Si       1.05119370       1.48884084      -3.18479282       0.00000000
Si      -0.76997943       2.95786719      -2.43139801       0.00000000
