10
Lattice="16.28999089631971 0.0 0.0 0.0 16.28999089631971 0.0 0.0 0.0 34.40785480372833" Properties=species:S:1:pos:R:3:initial_magmoms:R:1 pbc="T T T"
Si       1.34682462       1.35494519      -1.34239912       0.00000000
Si       1.35432491      -1.35770458       1.35508530       0.00000000
Si      -1.35840681       1.35589001       1.35556701       0.00000000
Si      -1.34488611      -1.37925573      -1.36831857       0.00000000
Si      -0.10868688       2.58348812      -2.66745667       0.00000000
Si       2.55549279       0.00472084      -2.80390110       0.00000000
Si       2.71345366      -0.00066137       2.71282001       0.00000000
Si      -0.00175932       2.71406875       2.71312968       0.00000000
Si      -0.00127062      -2.71570494       2.71285442       0.00000000
Si      -2.71630863      -0.00043983       2.71330172       0.00000000
