10
Lattice="16.28999089631971 0.0 0.0 0.0 16.28999089631971 0.0 0.0 0.0 34.40785480372833" Properties=species:S:1:pos:R:3:initial_magmoms:R:1 pbc="T T T"
Si      -1.83749571      -0.67927671      -1.34197590       0.00000000
Si       0.72192393       1.90648386      -1.27009785       0.00000000
Si      -1.80462249      -0.95441481       1.41412921       0.00000000
Si       1.92979485      -1.64869461      -0.21453309       0.00000000
Si       1.63580922       0.38993373       2.63030993       0.00000000
Si       2.07262557       0.54164250      -2.72785625       0.00000000
Si      -0.52531992      -0.37664109       3.48118225       0.00000000
Si      -0.65353851      -2.19679935      -2.71674251       0.00000000
Si       0.75870675      -3.53982419      -1.24993484       0.00000000
Si       3.09436695      -1.55704707       1.85135007       0.00000000
