10
Lattice="16.28999089631971 0.0 0.0 0.0 16.28999089631971 0.0 0.0 0.0 34.40785480372833" Properties=species:S:1:pos:R:3:initial_magmoms:R:1 pbc="T T T"
Si       0.79403976      -1.37978906       1.71192936       0.00000000
Si       0.36782820       2.26369098       0.45349578       0.00000000
Si       1.47233907       0.19839591      -1.85289842       0.00000000
Si      -2.11406733      -1.02041863      -0.38399187       0.00000000
Si       1.38802203      -3.08917763       0.17499845       0.00000000
Si       0.09135432      -2.87556686      -1.82970752       0.00000000
Si       2.48295994       1.77741819       1.58314069       0.00000000
Si      -1.24980138      -2.11058941       2.66316945       0.00000000
Si       0.42064038      -1.10754570      -3.42805649       0.00000000
Si      -2.84900697      -0.06419889      -2.32057025       0.00000000
