10
Lattice="16.28999089631971 0.0 0.0 0.0 16.28999089631971 0.0 0.0 0.0 34.40785480372833" Properties=species:S:1:pos:R:3:initial_magmoms:R:1 pbc="T T T"
Si      -0.79403976       1.37978906      -1.71192936       0.00000000
Si       1.47565443       1.28773427       1.30777448       0.00000000
Si      -2.04384114      -0.73080035       0.95124009       0.00000000
Si       0.59398227      -1.70938856      -1.53693092       0.00000000
Si       1.68892018       3.15720725      -0.12878867       0.00000000
Si      -2.90810709       0.35937043      -2.09592124       0.00000000
Si      -2.27709765      -2.82294038      -0.16901148       0.00000000
Si       0.96575265      -2.58425930       2.37448739       0.00000000
Si      -0.07855038      -3.74272265      -0.58063287       0.00000000
Si       0.43412850       2.02653464       3.27401244       0.00000000
