10
Lattice="16.28999089631971 0.0 0.0 0.0 16.28999089631971 0.0 0.0 0.0 34.40785480372833" Properties=species:S:1:pos:R:3:initial_magmoms:R:1 pbc="T T T"
Si      -0.72192393      -1.90648386       1.27009785       0.00000000
Si      -1.39160583       1.32975270      -1.44341032       0.00000000
Si       1.35070164      -1.36484136      -1.45775840       0.00000000
Si       0.90982908       1.69850943       1.47155596       0.00000000
Si      -2.55941964      -2.58576057      -0.07187805       0.00000000
Si       3.04560676      -2.37089547      -0.11158474       0.00000000
Si      -0.02313180       2.68726356      -2.82381981       0.00000000
Si       1.20787092      -3.55517847       1.05556476       0.00000000
Si       2.68276347      -0.02023218      -2.83114869       0.00000000
Si       0.79371396       0.91129518       3.71728908       0.00000000
