10
Lattice="16.28999089631971 0.0 0.0 0.0 16.28999089631971 0.0 0.0 0.0 34.40785480372833" Properties=species:S:1:pos:R:3:initial_magmoms:R:1 pbc="T T T"
Si       0.11611512       0.78721425      -2.24573312       0.00000000
Si       0.12017133      -2.42784531       0.18311871       0.00000000
Si       2.08440391       1.02936510       1.38151055       0.00000000
Si      -2.40451803       0.79482168       1.25674760       0.00000000
Si      -1.33376004       2.48117877      -1.13408353       0.00000000
Si       2.04764439      -1.85282460       1.76846150       0.00000000
Si       3.48205007      -0.47628702      -0.14506360       0.00000000
Si      -0.79371396      -0.91129518      -3.71728908       0.00000000
Si      -2.04095781      -3.19442013       1.03399102       0.00000000
Si      -3.04502454      -1.29894831       2.15193726       0.00000000
