10
Lattice="16.28999089631971 0.0 0.0 0.0 16.28999089631971 0.0 0.0 0.0 34.40785480372833" Properties=species:S:1:pos:R:3:initial_magmoms:R:1 pbc="T T T"
Si       2.01557799      -0.84141108      -0.86807625       0.00000000
Si      -2.10662280      -1.02082914      -0.56810841       0.00000000
Si      -0.31822515       2.37897531      -0.39039174       0.00000000
Si       0.49039416      -0.97854030       2.19632342       0.00000000
Si       1.59490503      -3.04383537      -0.11007079       0.00000000
Si      -1.40875920       2.96746785       1.62680428       0.00000000
Si       0.12256596      -3.24223128       1.74282764       0.00000000
Si       3.66875791       0.52637877       0.30777843       0.00000000
Si      -3.54261888      -0.26601570       1.15311108       0.00000000
Si      -2.69790093      -0.66730356      -2.83569053       0.00000000
