10
Lattice="16.28999089631971 0.0 0.0 0.0 16.28999089631971 0.0 0.0 0.0 34.40785480372833" Properties=species:S:1:pos:R:3:initial_magmoms:R:1 pbc="T T T"
Si      -1.35710361      -1.35637056       1.35697774       0.00000000
Si       1.35835794       1.35821133       1.35653043       0.00000000
Si      -1.35606105       1.35523026      -1.36293030       0.00000000
Si       1.35938421      -1.35475785      -1.36059056       0.00000000
Si      -2.71345788      -2.71419093      -0.00072257       0.00000000
Si       0.00107514      -2.71337643       2.71440277       0.00000000
Si      -2.71463076       0.00068418       2.71464363       0.00000000
Si       2.71460792       0.00114030       2.71502212       0.00000000
Si      -2.71466334       2.71542897      -0.00041289       0.00000000
Si       0.00073305       2.71598283       2.71478126       0.00000000
