10
Lattice="16.28999089631971 0.0 0.0 0.0 16.28999089631971 0.0 0.0 0.0 34.40785480372833" Properties=species:S:1:pos:R:3:initial_magmoms:R:1 pbc="T T T"
Si      -1.24442568       1.18586313      -1.60120483       0.00000000
Si       1.44987516      -1.69396452      -1.11164959       0.00000000
Si      -2.31313113      -0.76813866       0.62756521       0.00000000
Si       0.76424535       1.81268604       1.75180809       0.00000000
Si       1.33376004      -2.48117877       1.13408353       0.00000000
Si      -1.07075799      -1.68635709       2.39083113       0.00000000
Si       3.01982391       1.36958175       0.70181741       0.00000000
Si       0.55368081       2.05573284      -2.77158866       0.00000000
Si      -2.31726879      -0.69734232      -2.64018499       0.00000000
Si      -1.09188612       2.11032063       3.18458637       0.00000000
