10
Lattice="16.28999089631971 0.0 0.0 0.0 16.28999089631971 0.0 0.0 0.0 34.40785480372833" Properties=species:S:1:pos:R:3:initial_magmoms:R:1 pbc="T T T"
Si      -1.79810649      -0.86986971       1.17038384       0.00000000
Si       1.32748839      -1.41444441      -1.26989141       0.00000000
Si      -1.40486589       1.34408790      -1.27343542       0.00000000
Si       1.72994913       1.00778085       1.27512140       0.00000000
Si      -0.55368081      -2.05573284       2.77158866       0.00000000
Si       2.63261061      -2.57096925       0.39046055       0.00000000
Si      -0.04136031       2.67195096      -2.63712269       0.00000000
Si       2.67478542      -0.04300560      -2.63547111       0.00000000
Si       0.84263283       1.67563827       3.27638658       0.00000000
Si      -2.75172309      -0.04300560      -2.63302815       0.00000000
