10
Lattice="16.28999089631971 0.0 0.0 0.0 16.28999089631971 0.0 0.0 0.0 34.40785480372833" Properties=species:S:1:pos:R:3:initial_magmoms:R:1 pbc="T T T"
Si      -1.40770035      -0.24703785      -1.93127956       0.00000000
Si       1.12256019       2.11727646      -0.19278732       0.00000000
Si       1.53248175      -1.82340486      -0.33891756       0.00000000
Si      -1.23527070      -0.17998821       2.14522772       0.00000000
Si      -2.01290643       2.05136712       1.72259581       0.00000000
Si       2.93366307      -0.86625333      -1.90936175       0.00000000
Si       0.90541449       2.47699224      -2.51906927       0.00000000
Si      -2.76742665      -2.00775879      -1.26971937       0.00000000
Si      -0.40343814       3.58305066       0.82503200       0.00000000
Si       1.62694746       0.39860001      -3.41030203       0.00000000
