10
Lattice="16.28999089631971 0.0 0.0 0.0 16.28999089631971 0.0 0.0 0.0 34.40785480372833" Properties=species:S:1:pos:R:3:initial_magmoms:R:1 pbc="T T T"
Si       1.35417141      -1.35741312       1.35708096       0.00000000
Si       1.37011932       1.33605825      -1.36663259       0.00000000
Si      -1.35759231       1.35888766       1.35783793       0.00000000
Si      -1.35565380      -1.35149985      -1.38954479       0.00000000
Si      -0.05880690       2.63857668      -2.69040328       0.00000000
Si       0.16535979      -2.55287106      -2.82902573       0.00000000
Si       2.71373481      -0.00039096       2.71454041       0.00000000
Si      -0.00130320       2.71487415       2.71498771       0.00000000
Si      -0.00115659      -2.71529865       2.71460922       0.00000000
Si       2.71500543       2.71531398       0.00168599       0.00000000
