10
Lattice="16.28999089631971 0.0 0.0 0.0 16.28999089631971 0.0 0.0 0.0 34.40785480372833" Properties=species:S:1:pos:R:3:initial_magmoms:R:1 pbc="T T T"
Si       2.11492974       0.10446777      -0.96073666       0.00000000
Si      -0.67253265      -2.03333409       0.95629804       0.00000000
Si      -0.59398227       1.70938856       1.53693092       0.00000000
Si      -1.29666771       0.21361077      -2.00470596       0.00000000
Si      -2.87107992      -1.11355182       1.36791944       0.00000000
Si      -1.38802203       3.08917763      -0.17499845       0.00000000
Si       2.19022538       2.40903755      -1.52385593       0.00000000
Si       3.41484731      -0.95560398       0.68344360       0.00000000
Si      -3.50264322      -0.28277811      -0.93744253       0.00000000
Si      -0.23672628      -1.26151389      -3.44677437       0.00000000
