10
Lattice="16.28999089631971 0.0 0.0 0.0 16.28999089631971 0.0 0.0 0.0 34.40785480372833" Properties=species:S:1:pos:R:3:initial_magmoms:R:1 pbc="T T T"
Si      -1.66421898      -1.59431859       0.41093324       0.00000000
Si      -0.01321119       2.14350336       1.05195193       0.00000000
Si      -1.05751422       0.98504001      -1.90316833       0.00000000
Si       1.61200206      -1.82314422      -0.24763347       0.00000000
Si       2.13806969       2.61905733       0.00196125       0.00000000
Si      -1.44707328      -1.95403437       2.73721520       0.00000000
Si      -1.29674916      -0.69890616      -3.51675999       0.00000000
Si      -0.94268601      -3.67271082      -0.48029951       0.00000000
Si       0.76889356      -3.24864954      -1.98093012       0.00000000
Si      -3.79967508      -1.19808063      -0.59972924       0.00000000
