10
Lattice="16.28999089631971 0.0 0.0 0.0 16.28999089631971 0.0 0.0 0.0 34.40785480372833" Properties=species:S:1:pos:R:3:initial_magmoms:R:1 pbc="T T T"
Si      -1.39302306       1.63204690       1.13518458       0.00000000
Si      -1.01037096      -1.90482228       1.21132921       0.00000000
Si      -0.04676859      -0.18717210      -2.53200663       0.00000000
Si       2.18131964       1.00273095       0.98124375       0.00000000
Si      -3.30761934       0.35302059       1.92422595       0.00000000
Si       0.47726753      -3.74165010       0.92866852       0.00000000
Si      -2.24604891       3.24116333      -0.40732041       0.00000000
Si      -0.32319360       1.98632345       3.46215469       0.00000000
Si      -3.00662901      -2.81893563       0.17107595       0.00000000
Si       3.95124443       1.10806209      -0.60413345       0.00000000
