10
Lattice="16.28999089631971 0.0 0.0 0.0 16.28999089631971 0.0 0.0 0.0 34.40785480372833" Properties=species:S:1:pos:R:3:initial_magmoms:R:1 pbc="T T T"
Si      -1.40118132      -0.95715153       1.57044419       0.00000000
Si      -1.30671561       1.26485334      -1.50094028       0.00000000
Si       1.64740162       1.59627339       0.62402120       0.00000000
Si       1.24294210      -1.57942953      -1.37046562       0.00000000
Si       0.40486395       1.68891462      -3.00157089       0.00000000
Si       1.24797245       3.11441994      -1.26827424       0.00000000
Si       3.56053180       0.26401203       0.38010378       0.00000000
Si      -2.93366307       0.86625333       1.90936175       0.00000000
Si       0.13042502      -1.77806979       3.20347630       0.00000000
Si      -2.37454140      -2.77164576       0.38086076       0.00000000
