10
Lattice="16.28999089631971 0.0 0.0 0.0 16.28999089631971 0.0 0.0 0.0 34.40785480372833" Properties=species:S:1:pos:R:3:initial_magmoms:R:1 pbc="T T T"
Si      -1.26409406       1.46021931       1.30381757       0.00000000
Si       1.34641248       1.36182771      -1.36320556       0.00000000
Si      -1.37426905      -1.35048987      -1.35876695       0.00000000
Si       1.31370216      -1.28014965       1.50878528       0.00000000
Si      -2.31910534      -0.29970342       2.55182557       0.00000000
Si       2.68554822      -2.70414000       0.02470485       0.00000000
Si       2.69960649       0.00750969      -2.71908225       0.00000000
Si       2.70780036       2.71275741      -0.00134191       0.00000000
Si      -0.01549993      -2.70917361      -2.72090586       0.00000000
Si      -0.01254656       2.72168433      -2.71818764       0.00000000
