10
Lattice="16.28999089631971 0.0 0.0 0.0 16.28999089631971 0.0 0.0 0.0 34.40785480372833" Properties=species:S:1:pos:R:3:initial_magmoms:R:1 pbc="T T T"
Si       2.21258762       0.55537497      -0.26807175       0.00000000
Si      -0.84310850      -1.42550532      -1.73329665       0.00000000
Si      -1.61200206       1.82314422       0.24763347       0.00000000
Si       0.39942917      -1.51814655       1.89229544       0.00000000
Si      -2.55468807      -1.84956660      -0.23266604       0.00000000
Si      -3.27622104       0.22882563       0.65856671       0.00000000
Si       2.44840166       1.51322697       1.87753446       0.00000000
Si       3.06908324      -1.63439199      -0.25355162       0.00000000
Si      -1.24797245      -3.11441994       1.26827424       0.00000000
Si       1.10408570       0.20434176       3.44797865       0.00000000
