10
Lattice="16.28999089631971 0.0 0.0 0.0 16.28999089631971 0.0 0.0 0.0 34.40785480372833" Properties=species:S:1:pos:R:3:initial_magmoms:R:1 pbc="T T T"
Si      -1.35163237       1.35825740      -1.36189806       0.00000000
Si      -1.36023349      -1.35485743       1.36241418       0.00000000
Si       1.36357735      -1.35984217      -1.36162280       0.00000000
Si       1.36876572       1.37582779       1.36306793       0.00000000
Si       0.11202985      -2.62130719       2.66038241       0.00000000
Si      -2.71207543       2.70955362      -0.00116987       0.00000000
Si      -2.71098400      -0.00168949      -2.71959836       0.00000000
Si       2.72395362       2.70663771      -0.00901486       0.00000000
Si      -2.71429087      -2.71705981      -0.00385368       0.00000000
Si       0.00379342       2.71273017      -2.71980481       0.00000000
