10
Lattice="16.28999089631971 0.0 0.0 0.0 16.28999089631971 0.0 0.0 0.0 34.40785480372833" Properties=species:S:1:pos:R:3:initial_magmoms:R:1 pbc="T T T"
Si      -1.35594443      -1.35645201      -1.35725300       0.00000000
Si       1.35708080      -1.35698958       1.35780353       0.00000000
Si       1.35807449       1.35739683      -1.35697774       0.00000000
Si      -1.35824758       1.35762489       1.35718418       0.00000000
Si       2.71363055       0.00084708       2.71440277       0.00000000
Si      -0.00147587      -2.71583622       2.71257916       0.00000000
Si       0.00327429       2.70984150      -2.71873817       0.00000000
Si       2.71359797       0.00299736      -2.71519416       0.00000000
Si       2.71442876       2.71480995       0.00037849       0.00000000
Si       2.71468940      -2.71461447      -0.00051612       0.00000000
