10
Lattice="16.28999089631971 0.0 0.0 0.0 16.28999089631971 0.0 0.0 0.0 34.40785480372833" Properties=species:S:1:pos:R:3:initial_magmoms:R:1 pbc="T T T"
Si       1.35656441       1.35753911      -1.35835405       0.00000000
Si       1.35895904      -1.35985662       1.35498208       0.00000000
Si      -1.35972508      -1.35739683      -1.35811320       0.00000000
Si      -1.36357735       1.35984217       1.36162280       0.00000000
Si       2.71215305      -2.71417464      -0.00089460       0.00000000
Si       2.71295126      -0.00021177      -2.71491889       0.00000000
Si       2.71163177       2.71705538      -0.00271822       0.00000000
Si      -0.00147750      -2.71502172      -2.71529738       0.00000000
Si      -0.00227734       2.71501099      -2.71536620       0.00000000
Si      -2.71670841      -2.71443528      -0.00086020       0.00000000
