10
Lattice="16.28999089631971 0.0 0.0 0.0 16.28999089631971 0.0 0.0 0.0 34.40785480372833" Properties=species:S:1:pos:R:3:initial_magmoms:R:1 pbc="T T T"
Si       0.05619235       1.00520703       2.12472063       0.00000000
Si      -2.29546367      -0.36077463      -0.36131709       0.00000000
Si       1.27601199      -1.94952204      -0.37287813       0.00000000
Si       0.39444606       1.75955199      -1.55819498       0.00000000
Si      -0.17705601      -2.82093930      -2.09227400       0.00000000
Si       0.13148799       3.30977681       1.56160136       0.00000000
Si      -1.76287841       2.17936321      -2.40070619       0.00000000
Si      -3.35540510       1.11435003       1.08075132       0.00000000
Si      -2.60091746       0.01223379      -2.65738893       0.00000000
Si      -2.05873739       0.90073926       3.08545729       0.00000000
