10
Lattice="16.28999089631971 0.0 0.0 0.0 16.28999089631971 0.0 0.0 0.0 34.5300574570662" Properties=species:S:1:pos:R:3:initial_magmoms:R:1 pbc="T T T"
Si      -1.35770634       1.35746525       1.35696296       0.00000000
Si       1.35739683      -1.35745586       1.35730826       0.00000000
Si       1.35501849       1.36015310      -1.35713561       0.00000000
Si      -1.35884664      -1.35790863      -1.35748091       0.00000000
Si       0.00112401       2.71197875      -2.71164693       0.00000000
Si      -0.00110772       2.71336340       2.71444386       0.00000000
Si       2.71414206      -0.00162411       2.71496181       0.00000000
Si       2.71500543       2.71412903      -0.00017265       0.00000000
Si      -2.71529865       2.71469918      -0.00100137       0.00000000
Si      -0.00032580      -2.71491162       2.71530712       0.00000000
