10
Lattice="16.28999089631971 0.0 0.0 0.0 16.28999089631971 0.0 0.0 0.0 34.5300574570662" Properties=species:S:1:pos:R:3:initial_magmoms:R:1 pbc="T T T"
Si       0.32360085       0.93050109       2.22567063       0.00000000
Si      -0.58904640       1.95005961      -1.34325452       0.00000000
Si       1.90850382      -0.86645695      -1.26252320       0.00000000
Si      -1.58754195      -1.87161055      -0.17503296       0.00000000
Si       2.07897867       2.75960745       1.21311066       0.00000000
Si      -1.95089040       0.78524316      -3.02269386       0.00000000
Si      -3.20108274      -0.77345734      -1.73627585       0.00000000
Si       0.79879644      -2.00183642      -3.06727219       0.00000000
Si      -0.37554966      -3.39617897      -1.56711300       0.00000000
Si       0.19678320       3.94551945       0.14343794       0.00000000
