10
Lattice="16.28999089631971 0.0 0.0 0.0 16.28999089631971 0.0 0.0 0.0 34.5300574570662" Properties=species:S:1:pos:R:3:initial_magmoms:R:1 pbc="T T T"
Si      -0.04616586       0.27911286       2.33903287       0.00000000
Si       1.63051497      -0.62267710      -1.59042081       0.00000000
Si      -2.14161698      -0.95430567      -0.48442245       0.00000000
Si      -0.60558075       1.75585023      -1.57805904       0.00000000
Si       0.23017770      -1.87001774      -2.99468997       0.00000000
Si      -0.31651470      -2.22729002       2.78626642       0.00000000
Si      -1.05978993      -3.40122887       0.58490497       0.00000000
Si      -1.38863128      -2.88941336      -1.67132478       0.00000000
Si       3.24405576      -1.72083031      -0.02917791       0.00000000
Si      -2.46344127       1.00893744      -2.82918731       0.00000000
