10
Lattice="16.28999089631971 0.0 0.0 0.0 16.28999089631971 0.0 0.0 0.0 34.5300574570662" Properties=species:S:1:pos:R:3:initial_magmoms:R:1 pbc="T T T"
Si       1.38649077       1.58241060       1.07509394       0.00000000
Si       1.49050242      -1.17752265      -1.46072584       0.00000000
Si      -1.20751254       1.53961677      -1.46973819       0.00000000
Si      -1.29518532      -1.35397593       1.64035130       0.00000000
Si      -0.50935572       0.64148391       3.12704375       0.00000000
Si      -2.65702932      -2.51879238      -0.03908805       0.00000000
Si       2.81789307       0.27064206       2.44845868       0.00000000
Si      -0.08992080       2.96603433       2.35446781       0.00000000
Si       0.14962365      -2.51030529      -2.84714295       0.00000000
Si       2.64170043      -2.75656122       0.01426092       0.00000000
