10
Lattice="16.28999089631971 0.0 0.0 0.0 16.28999089631971 0.0 0.0 0.0 34.5300574570662" Properties=species:S:1:pos:R:3:initial_magmoms:R:1 pbc="T T T"
Si       1.57794714       0.70584570       1.50064261       0.00000000
Si       0.04616586      -0.27911286      -2.33903287       0.00000000
Si      -0.27034884      -2.50640288       0.44723355       0.00000000
Si      -0.55640124       2.09513835       1.42698995       0.00000000
Si      -2.83733423       1.39488012       1.85467948       0.00000000
Si      -2.09545112      -1.23341853      -2.82345532       0.00000000
Si      -2.27061276      -2.61088694       1.68461885       0.00000000
Si      -3.65128037      -0.75752084       1.00278796       0.00000000
Si      -0.56439963       3.98671686      -0.16242948       0.00000000
Si       3.44746899       2.07216945       1.04336080       0.00000000
