10
Lattice="16.28999089631971 0.0 0.0 0.0 16.28999089631971 0.0 0.0 0.0 34.5300574570662" Properties=species:S:1:pos:R:3:initial_magmoms:R:1 pbc="T T T"
Si      -2.08474533       1.00435995       0.47005793       0.00000000
Si       1.93728825       0.34792182       1.33748799       0.00000000
Si      -0.71952930      -2.19758616       0.56950456       0.00000000
Si       0.20456982       0.99399951      -2.20136145       0.00000000
Si      -0.69278112      -3.15227790      -1.53596687       0.00000000
Si      -1.52133939       2.99346669       1.50796298       0.00000000
Si      -1.85145624       0.35111466      -3.16209178       0.00000000
Si       0.36957123       3.67116327       0.28124748       0.00000000
Si       2.41308657       2.65204458       0.93611038       0.00000000
Si       0.92348010       0.44049789       3.57973306       0.00000000
