10
Lattice="16.28999089631971 0.0 0.0 0.0 16.28999089631971 0.0 0.0 0.0 34.5300574570662" Properties=species:S:1:pos:R:3:initial_magmoms:R:1 pbc="T T T"
Si      -0.02674818       0.95469174       2.10547143       0.00000000
Si       2.21102541      -0.44545005      -0.62958689       0.00000000
Si      -0.45807480      -2.31163245      -0.19554382       0.00000000
Si      -1.52283807       1.18894194      -1.39777751       0.00000000
Si       1.34604270      -2.35833262      -1.74204237       0.00000000
Si      -3.31960063       0.99105102       0.19568194       0.00000000
Si      -2.35243564       1.05135660       2.40505438       0.00000000
Si       0.69278112       3.15227790       1.53596687       0.00000000
Si       0.30599136      -1.19767338      -3.59357962       0.00000000
Si      -2.78279789      -2.73555038      -0.13363140       0.00000000
