10
Lattice="16.28999089631971 0.0 0.0 0.0 16.28999089631971 0.0 0.0 0.0 34.5300574570662" Properties=species:S:1:pos:R:3:initial_magmoms:R:1 pbc="T T T"
Si       1.30955310      -1.41286428       1.32985685       0.00000000
Si       1.34618931       1.35281934      -1.35830963       0.00000000
Si      -1.27449702       1.29358890       1.49532497       0.00000000
Si      -1.37321442      -1.35681039      -1.35810245       0.00000000
Si      -0.34367013      -2.42387055       2.67034896       0.00000000
Si      -2.00665107      -0.51725637       3.03246587       0.00000000
Si       2.67408495      -2.70993924      -0.02910885       0.00000000
Si      -2.70974376       2.67758730       0.00797645       0.00000000
Si       2.69628822       2.71997388       0.00490327       0.00000000
Si       2.70205488      -0.00045612      -2.71730986       0.00000000
