10
Lattice="16.28999089631971 0.0 0.0 0.0 16.28999089631971 0.0 0.0 0.0 34.5300574570662" Properties=species:S:1:pos:R:3:initial_magmoms:R:1 pbc="T T T"
Si       1.36453185      -1.29707496      -1.35896570       0.00000000
Si      -1.30955310       1.41286428      -1.32985685       0.00000000
Si      -1.65322323      -1.01100627       1.34049211       0.00000000
Si       1.76756274       1.04356998       1.16535556       0.00000000
Si       0.21268224       2.22078312       2.63436862       0.00000000
Si      -0.20222406      -2.61275310       2.51434207       0.00000000
Si      -2.58405012       2.70645318       0.16546813       0.00000000
Si       2.73976623      -2.58263289      -0.02731329       0.00000000
Si       0.04018743      -2.66165568      -2.68820101       0.00000000
Si      -2.68276752       0.05605389      -2.68795929       0.00000000
