10
Lattice="16.28999089631971 0.0 0.0 0.0 16.28999089631971 0.0 0.0 0.0 34.5300574570662" Properties=species:S:1:pos:R:3:initial_magmoms:R:1 pbc="T T T"
Si      -1.35697329       1.35713523      -1.36217700       0.00000000
Si       1.35806472      -1.35782037      -1.36176264       0.00000000
Si       1.34978940       1.36287257       1.37522937       0.00000000
Si      -1.33911945      -1.39413078       1.36155546       0.00000000
Si       2.66053167      -0.07925085       2.75964373       0.00000000
Si      -2.73968478      -0.09821241       2.68637091       0.00000000
Si      -2.71270854      -2.71783989      -0.00790739       0.00000000
Si       2.71749780       2.71631582      -0.00383284       0.00000000
Si       0.00068418       2.71455650      -2.72010680       0.00000000
Si      -2.71494027      -0.00016290      -2.72031398       0.00000000
