10
Lattice="16.28999089631971 0.0 0.0 0.0 16.28999089631971 0.0 0.0 0.0 34.5300574570662" Properties=species:S:1:pos:R:3:initial_magmoms:R:1 pbc="T T T"
Si       1.27449702      -1.29358890      -1.49532497       0.00000000
Si       1.39005828       1.30453578       1.41089894       0.00000000
Si      -0.73215405      -1.81084527       1.53714090       0.00000000
Si      -1.43524674       1.38399840      -1.48734853       0.00000000
Si       2.56440438       2.69887833      -0.08926025       0.00000000
Si       2.58405012      -2.70645318      -0.16546813       0.00000000
Si       2.79673236      -0.48567006       2.46890049       0.00000000
Si      -2.76123645      -2.61757494       0.05117357       0.00000000
Si       2.62068633       0.05923044      -2.85363460       0.00000000
Si      -0.09871740      -2.65039929      -2.85342742       0.00000000
