10
Lattice="16.28999089631971 0.0 0.0 0.0 16.28999089631971 0.0 0.0 0.0 34.5300574570662" Properties=species:S:1:pos:R:3:initial_magmoms:R:1 pbc="T T T"
Si       0.85750560       1.66956210       1.47951020       0.00000000
Si      -2.06902548       0.54180540      -1.07115751       0.00000000
Si       1.94753466      -0.22362912      -1.46372995       0.00000000
Si      -0.76867623      -2.26944135       0.61249450       0.00000000
Si       0.87232950      -0.89568936      -3.41858119       0.00000000
Si      -2.39383179       0.21413205       2.76105947       0.00000000
Si       2.90655954      -2.19872646      -0.41967855       0.00000000
Si      -0.94568337       2.06016372       2.91551250       0.00000000
Si      -1.27035936      -1.97200224       2.89545053       0.00000000
Si      -3.69670599       0.39022695       0.71259719       0.00000000
