10
Lattice="16.28999089631971 0.0 0.0 0.0 16.28999089631971 0.0 0.0 0.0 34.5300574570662" Properties=species:S:1:pos:R:3:initial_magmoms:R:1 pbc="T T T"
Si       0.68264874       0.07591140       2.22722448       0.00000000
Si       0.17464509       2.20578003      -0.78317667       0.00000000
Si       0.84222558      -1.57275063      -1.53945441       0.00000000
Si      -2.28113757      -0.46245681       0.53645927       0.00000000
Si      -1.09213047       1.62883710       2.75363550       0.00000000
Si      -1.15758369       3.13353530       0.90786478       0.00000000
Si      -1.11394278      -1.56463821      -2.96157562       0.00000000
Si       0.60665589      -2.35999746       2.64396798       0.00000000
Si      -3.40443081       0.91282644      -1.05230409       0.00000000
Si      -2.54583378      -2.73663855       0.33811851       0.00000000
