10
Lattice="16.28999089631971 0.0 0.0 0.0 16.28999089631971 0.0 0.0 0.0 34.5300574570662" Properties=species:S:1:pos:R:3:initial_magmoms:R:1 pbc="T T T"
Si      -1.34087877      -1.33278264      -1.38641711       0.00000000
Si       1.37241621       1.38070782      -1.37947657       0.00000000
Si      -1.49050242       1.17752265       1.46072584       0.00000000
Si       1.15119801      -1.57903857       1.47498676       0.00000000
Si       2.57774589       0.02857266       2.54483213       0.00000000
Si      -0.10401165       2.75993325       2.53581978       0.00000000
Si      -2.70858717      -2.68622589      -0.00735491       0.00000000
Si       2.70653463      -2.70014569      -0.01108415       0.00000000
Si      -2.69801496       2.71713942      -0.00901235       0.00000000
Si       0.01415601      -2.69363132      -2.74469221       0.00000000
