10
Lattice="16.28999089631971 0.0 0.0 0.0 16.28999089631971 0.0 0.0 0.0 34.5300574570662" Properties=species:S:1:pos:R:3:initial_magmoms:R:1 pbc="T T T"
Si       1.42654788       1.60761123       1.06984537       0.00000000
Si       1.55533662      -1.12110712      -1.48607091       0.00000000
Si      -1.15119801       1.57903857      -1.47498676       0.00000000
Si      -1.43933553      -1.41393127       1.70682169       0.00000000
Si      -2.54904291      -2.54931074      -0.09792730       0.00000000
Si       2.83366179      -2.49302879      -0.03825933       0.00000000
Si       0.22281462      -2.47005989      -2.86202541       0.00000000
Si      -2.49207678       0.24625593      -2.86140387       0.00000000
Si      -2.64170043       2.75656122      -0.01426092       0.00000000
Si       0.17619264       3.02720328       2.43419776       0.00000000
