10
Lattice="16.28999089631971 0.0 0.0 0.0 16.28999089631971 0.0 0.0 0.0 34.5300574570662" Properties=species:S:1:pos:R:3:initial_magmoms:R:1 pbc="T T T"
Si      -1.01954223      -2.12045301      -0.11971578       0.00000000
Si      -1.49846823       1.46644209       1.18407086       0.00000000
Si       2.25088704      -0.36139365       0.85234041       0.00000000
Si       0.40566987       0.93674016      -2.21237655       0.00000000
Si      -1.77261264       2.14799940      -2.30557322       0.00000000
Si       3.27018492       1.68244749       0.12410110       0.00000000
Si       0.92258415      -3.57669756      -0.12579307       0.00000000
Si       1.44220257      -0.81285471      -3.42831867       0.00000000
Si       2.26685124       2.34932751      -1.96600445       0.00000000
Si      -0.24573465       3.49080039       1.52764513       0.00000000
