10
Lattice="16.28999089631971 0.0 0.0 0.0 16.28999089631971 0.0 0.0 0.0 34.5300574570662" Properties=species:S:1:pos:R:3:initial_magmoms:R:1 pbc="T T T"
Si      -0.22985190       0.13926321       2.29303881       0.00000000
Si      -1.80716373       0.52817067      -1.38258427       0.00000000
Si       1.47931119       1.77543081      -0.49661156       0.00000000
Si       1.07303859      -1.88735940      -1.02250463       0.00000000
Si      -0.22915143       0.93926511      -3.24865868       0.00000000
Si       2.13395742       0.91196307      -2.57034985       0.00000000
Si      -2.40095052      -1.72305846      -1.93706825       0.00000000
Si       1.82578320      -0.86635107       3.10311441       0.00000000
Si       3.15348336      -1.14639246      -1.77370645       0.00000000
Si      -0.78718167       2.48500692       2.76378734       0.00000000
