10
Lattice="16.28999089631971 0.0 0.0 0.0 16.28999089631971 0.0 0.0 0.0 34.5300574570662" Properties=species:S:1:pos:R:3:initial_magmoms:R:1 pbc="T T T"
Si       1.37523438      -1.28555793       1.33165241       0.00000000
Si      -1.32434442      -1.36458072      -1.32923530       0.00000000
Si      -1.36453185       1.29707496       1.35896570       0.00000000
Si       1.38166893       1.35438318      -1.32933889       0.00000000
Si       0.40303089       2.34064494       2.52432126       0.00000000
Si       2.12035527       0.43489413       2.81230210       0.00000000
Si      -0.09034434      -2.69930187       2.59393390       0.00000000
Si      -2.68698663      -0.00752598      -2.68581843       0.00000000
Si      -2.67408495       2.70993924       0.02910885       0.00000000
Si       0.02796993       2.70948312      -2.68820101       0.00000000
