10
Lattice="16.28999089631971 0.0 0.0 0.0 16.28999089631971 0.0 0.0 0.0 34.5300574570662" Properties=species:S:1:pos:R:3:initial_magmoms:R:1 pbc="T T T"
Si      -1.25273358      -2.02435830      -0.34357426       0.00000000
Si      -0.81037863       1.54561149       1.69142128       0.00000000
Si       2.47041108      -0.08998596      -0.04236840       0.00000000
Si      -0.68598819       0.49803417      -2.33575251       0.00000000
Si       2.32002180       1.90824318      -1.32018842       0.00000000
Si       1.43944956       1.02780126      -3.30950068       0.00000000
Si       0.24573465      -3.49080039      -1.52764513       0.00000000
Si      -2.90673873       0.71664597       2.40149778       0.00000000
Si      -3.00379455      -1.52270775      -1.92857385       0.00000000
Si      -0.80524728       3.78217962       0.89129034       0.00000000
