10
Lattice="16.28999089631971 0.0 0.0 0.0 16.28999089631971 0.0 0.0 0.0 34.5300574570662" Properties=species:S:1:pos:R:3:initial_magmoms:R:1 pbc="T T T"
Si       0.52554798      -0.53541972      -2.20916525       0.00000000
Si       1.99073574       0.70164288       1.11822201       0.00000000
Si      -1.84194288       1.47554820      -0.39989282       0.00000000
Si      -0.70705116      -1.94369022       1.31697713       0.00000000
Si      -2.66703138       1.26483705       1.76345102       0.00000000
Si       2.81781162      -1.42342020       1.62905996       0.00000000
Si       2.33162028       0.88099578      -2.53861671       0.00000000
Si      -2.95091721       0.07978842      -2.05087938       0.00000000
Si       1.55944170      -2.65326633      -1.94342178       0.00000000
Si      -2.83568175      -1.14362316       2.14442136       0.00000000
