10
Lattice="16.28999089631971 0.0 0.0 0.0 16.28999089631971 0.0 0.0 0.0 34.5300574570662" Properties=species:S:1:pos:R:3:initial_magmoms:R:1 pbc="T T T"
Si       0.54525888      -1.92541284       1.32377955       0.00000000
Si       1.21888296       1.92800295       0.78908131       0.00000000
Si      -2.26202940       0.89422326      -0.13950151       0.00000000
Si       0.67680063      -0.86302791      -2.20861277       0.00000000
Si      -0.61439364      -0.26639037       2.77195375       0.00000000
Si      -1.51070202       3.00547242      -0.98189726       0.00000000
Si      -2.36522655       1.48452399       2.34866676       0.00000000
Si      -0.25482447      -3.66751431      -0.18200803       0.00000000
Si       1.50387651      -2.98809099      -1.69777481       0.00000000
Si      -1.31393511      -1.56467079      -3.32683477       0.00000000
