10
Lattice="16.28999089631971 0.0 0.0 0.0 16.28999089631971 0.0 0.0 0.0 34.5300574570662" Properties=species:S:1:pos:R:3:initial_magmoms:R:1 pbc="T T T"
Si      -0.54525888       1.92541284      -1.32377955       0.00000000
Si       1.84091661      -0.99279405       1.23897368       0.00000000
Si      -0.80008335      -1.74210147      -1.50578759       0.00000000
Si      -1.15965252       1.65902247       1.44817419       0.00000000
Si       0.95861763      -1.06267815      -3.02155437       0.00000000
Si       2.92431564      -0.00931788      -2.00091436       0.00000000
Si      -2.18131245       0.08962758       2.79449981       0.00000000
Si       0.13154175       1.06238493      -3.53239232       0.00000000
Si       0.52650909      -2.50496217       2.69338194       0.00000000
Si      -3.10111101      -1.61938890       1.42306289       0.00000000
