10
Lattice="16.28999089631971 0.0 0.0 0.0 16.28999089631971 0.0 0.0 0.0 34.5300574570662" Properties=species:S:1:pos:R:3:initial_magmoms:R:1 pbc="T T T"
Si       1.36547667       1.35174420      -1.36293666       0.00000000
Si      -1.35009891      -1.36715454      -1.36321290       0.00000000
Si      -1.40638086       1.27249335       1.40116145       0.00000000
Si       1.43106021      -1.27161369       1.40312967       0.00000000
Si       2.69799867       2.70069696       0.01301784       0.00000000
Si      -2.69628822      -2.71997388      -0.00490327       0.00000000
Si       0.00562005       2.70721134      -2.72059022       0.00000000
Si      -2.70884781      -0.00607617      -2.72024492       0.00000000
Si      -2.71712313       2.71461677       0.01674709       0.00000000
Si       2.72603376      -2.71205694       0.00935765       0.00000000
