10
Lattice="16.28999089631971 0.0 0.0 0.0 16.28999089631971 0.0 0.0 0.0 34.5300574570662" Properties=species:S:1:pos:R:3:initial_magmoms:R:1 pbc="T T T"
Si       0.35647407       1.36080863       2.00878722       0.00000000
Si       1.69564239      -0.92119950      -1.57840434       0.00000000
Si      -1.36436895       1.55147493      -1.44201054       0.00000000
Si      -1.16654319      -2.09639268       1.26625244       0.00000000
Si      -2.24174835      -2.76845292      -0.68859879       0.00000000
Si       0.98709255       3.44912147       1.08172371       0.00000000
Si       0.36336474      -2.12801157      -3.24479131       0.00000000
Si      -3.27287277       2.41793189      -0.17948734       0.00000000
Si      -2.47407633       0.41609547      -3.24675953       0.00000000
Si       3.17891205      -2.55497247      -0.52610025       0.00000000
