10
Lattice="16.28999089631971 0.0 0.0 0.0 16.28999089631971 0.0 0.0 0.0 34.5300574570662" Properties=species:S:1:pos:R:3:initial_magmoms:R:1 pbc="T T T"
Si      -0.07097553      -0.43585524       2.34801069       0.00000000
Si       2.28093299       0.70025823      -0.42768953       0.00000000
Si      -0.81394614      -2.15240096      -0.85189152       0.00000000
Si      -1.53668457       1.76873562      -0.84750620       0.00000000
Si       2.58645194       1.69758090       1.84176523       0.00000000
Si       2.83733423      -1.39488012      -1.85467948       0.00000000
Si      -2.33611632      -0.84405006       2.84365541       0.00000000
Si      -3.65523165       0.71182413      -0.87575181       0.00000000
Si       0.78968937       1.49968998       3.43522469       0.00000000
Si      -3.74305104      -0.83675214       0.92616572       0.00000000
