10
Lattice="16.28999089631971 0.0 0.0 0.0 16.28999089631971 0.0 0.0 0.0 34.5300574570662" Properties=species:S:1:pos:R:3:initial_magmoms:R:1 pbc="T T T"
Si      -1.14582231      -1.57310901      -1.32567871       0.00000000
Si       1.47351195       1.19032659      -1.49718960       0.00000000
Si      -0.13517442      -0.83269593       2.28696151       0.00000000
Si      -0.68865975       1.42726464       1.98005819       0.00000000
Si      -2.55156786      -0.17558991      -2.78250265       0.00000000
Si       0.13468572       2.54788632      -2.81323441       0.00000000
Si       2.55228462       2.82932865      -0.14640753       0.00000000
Si      -2.05011279      -3.43741806      -0.06733365       0.00000000
Si       2.88569205      -0.19883574      -2.79676357       0.00000000
Si       0.17045856      -2.88372096      -2.80453283       0.00000000
