10
Lattice="16.28999089631971 0.0 0.0 0.0 16.28999089631971 0.0 0.0 0.0 34.5300574570662" Properties=species:S:1:pos:R:3:initial_magmoms:R:1 pbc="T T T"
Si       1.01929788       2.04384114      -0.72823932       0.00000000
Si      -0.10278990       0.14213025       2.40709165       0.00000000
Si      -2.25088704       0.36139365      -0.85234041       0.00000000
Si       0.79024419      -2.15839242      -0.94988788       0.00000000
Si      -1.32830289      -3.21530391      -0.97813348       0.00000000
Si      -1.84521717       1.29813381      -3.06471696       0.00000000
Si      -0.02621061       3.76220808       0.63293631       0.00000000
Si      -3.27042927      -1.75905936      -0.97205619       0.00000000
Si       0.01596420       2.71072116      -2.81834486       0.00000000
Si       1.87439256      -0.41401035       3.54402896       0.00000000
