10
Lattice="16.28999089631971 0.0 0.0 0.0 16.28999089631971 0.0 0.0 0.0 34.5300574570662" Properties=species:S:1:pos:R:3:initial_magmoms:R:1 pbc="T T T"
Si       0.68841540      -1.45790613      -1.69753310       0.00000000
Si      -0.49337523       2.09715831      -0.94878292       0.00000000
Si      -1.99115928      -0.66057579       1.14139169       0.00000000
Si       1.44368496       0.16568559       1.90019012       0.00000000
Si      -1.07926137       3.21105222       1.11414746       0.00000000
Si      -0.29724363      -0.36689967       3.66571295       0.00000000
Si       0.11559384      -3.64027906      -0.95044036       0.00000000
Si       3.01612838      -1.81369602      -1.53051112       0.00000000
Si      -0.66345912      -0.94061718      -3.73542917       0.00000000
Si      -2.33763129       1.98120609      -2.45833428       0.00000000
