10
Lattice="16.28999089631971 0.0 0.0 0.0 16.28999089631971 0.0 0.0 0.0 34.5300574570662" Properties=species:S:1:pos:R:3:initial_magmoms:R:1 pbc="T T T"
Si      -1.70808795      -1.07603595      -1.19950581       0.00000000
Si       1.04687685       1.70131131      -1.27415983       0.00000000
Si      -1.43648478       1.38639303       1.49145761       0.00000000
Si       1.81863419      -1.72007739       0.07182256       0.00000000
Si      -0.27683226      -2.35274841      -2.63713102       0.00000000
Si       2.49090131       0.37198215      -2.61530801       0.00000000
Si       0.11976408       2.78402616       2.55684859       0.00000000
Si       3.02255153       0.55723203       2.41164962       0.00000000
Si      -2.95705854       0.37291068      -2.62100548       0.00000000
Si       0.99553077      -3.65394474      -1.19653622       0.00000000
