10
Lattice="16.28999089631971 0.0 0.0 0.0 16.28999089631971 0.0 0.0 0.0 34.5300574570662" Properties=species:S:1:pos:R:3:initial_magmoms:R:1 pbc="T T T"
Si      -0.15038928       1.99822914      -1.27782002       0.00000000
Si       1.17814167       0.11411145       2.08730861       0.00000000
Si       1.04550849      -1.71836694      -1.36117563       0.00000000
Si      -2.47041108       0.08998596       0.04236840       0.00000000
Si       0.13049919      -1.69210746       3.15366644       0.00000000
Si      -1.03096152       1.11778722      -3.26713227       0.00000000
Si       0.04217481      -1.05148692      -3.45128117       0.00000000
Si       0.39421800       2.07536229       3.12966804       0.00000000
Si       0.02621061      -3.76220808      -0.63293631       0.00000000
Si       1.95181893       2.70216891      -1.93240669       0.00000000
