10
Lattice="16.28999089631971 0.0 0.0 0.0 16.28999089631971 0.0 0.0 0.0 34.5300574570662" Properties=species:S:1:pos:R:3:initial_magmoms:R:1 pbc="T T T"
Si       1.91992311       0.09474264      -1.40036726       0.00000000
Si       0.00799839      -1.89157851       1.58941943       0.00000000
Si       0.39389220       2.06182530       1.37063687       0.00000000
Si      -1.55139607       0.24786864      -1.97902229       0.00000000
Si       1.36643778       2.35470321      -1.70727058       0.00000000
Si      -1.04212017       2.75444352      -1.75398978       0.00000000
Si       2.46052305       2.82010851       0.48804810       0.00000000
Si      -1.31465839       3.62142990       0.63998044       0.00000000
Si       0.67768029       1.42019478       3.63052680       0.00000000
Si       0.31351734      -0.89425584       3.85887420       0.00000000
