10
Lattice="16.28999089631971 0.0 0.0 0.0 16.28999089631971 0.0 0.0 0.0 34.5300574570662" Properties=species:S:1:pos:R:3:initial_magmoms:R:1 pbc="T T T"
Si      -1.04764248      -1.80621891       1.06635783       0.00000000
Si       2.22180192      -0.66854160       0.39181278       0.00000000
Si      -0.78392367       1.96125084       1.04235943       0.00000000
Si      -1.17814167      -0.11411145      -2.08730861       0.00000000
Si      -2.61729801      -0.68927877       2.40125607       0.00000000
Si       2.43680222      -0.11616399       2.71848388       0.00000000
Si      -3.04862463       1.47966957       1.62595225       0.00000000
Si      -0.50951862       3.75938991      -0.40255163       0.00000000
Si      -0.13263318      -1.83247839      -3.44848424       0.00000000
Si      -1.25472096      -3.73418928      -0.31315327       0.00000000
