10
Lattice="16.28999089631971 0.0 0.0 0.0 16.28999089631971 0.0 0.0 0.0 34.5300574570662" Properties=species:S:1:pos:R:3:initial_magmoms:R:1 pbc="T T T"
Si       1.65464046       1.19811321       1.28260731       0.00000000
Si      -1.84091661       0.99279405      -1.23897368       0.00000000
Si      -1.31440752      -1.51216812       1.45440825       0.00000000
Si       1.34904006      -1.31227353      -1.62053103       0.00000000
Si       1.08339903       0.98347617      -3.23988804       0.00000000
Si       0.14568147       2.52576450       2.82246227       0.00000000
Si       2.78842446      -2.63218707      -0.05990968       0.00000000
Si      -2.58046632      -0.17117532       2.87217522       0.00000000
Si      -2.64099996      -0.74930742      -2.74476127       0.00000000
Si      -3.00056913       2.65181652       0.20920051       0.00000000
