10
Lattice="16.28999089631971 0.0 0.0 0.0 16.28999089631971 0.0 0.0 0.0 34.5300574570662" Properties=species:S:1:pos:R:3:initial_magmoms:R:1 pbc="T T T"
Si      -1.74594265       1.63655856       0.44015489       0.00000000
Si      -1.16997386      -1.78557948      -1.22902902       0.00000000
Si       2.12968944       0.63560322      -1.09318770       0.00000000
Si       1.14593634      -0.48757599       2.21510442       0.00000000
Si       0.78949485      -2.71090035      -2.07246068       0.00000000
Si      -1.26808365       3.18213747      -1.30188748       0.00000000
Si       2.09158713      -0.91500930      -2.98944139       0.00000000
Si       3.02104566      -1.73043783       1.46828792       0.00000000
Si      -3.79494188       0.53362782       0.01508964       0.00000000
Si       3.82700970       0.19271070       0.45165340       0.00000000
