10
Lattice="16.28999089631971 0.0 0.0 0.0 16.28999089631971 0.0 0.0 0.0 34.5300574570662" Properties=species:S:1:pos:R:3:initial_magmoms:R:1 pbc="T T T"
Si      -1.35701245       1.35677781       1.35699749       0.00000000
Si      -1.35721688      -1.35606105      -1.35765356       0.00000000
Si       1.35700587       1.35755973      -1.35803339       0.00000000
Si       1.35757602      -1.35788553       1.35748091       0.00000000
Si       0.00061739       2.71407690       2.71430574       0.00000000
Si       2.71432125       0.00052128       2.71447839       0.00000000
Si       2.71371852       2.71515204       0.00024171       0.00000000
Si      -2.71519181       2.71497285      -0.00037983       0.00000000
Si       2.71490769      -2.71562445       0.00017265       0.00000000
Si       0.00270414       2.71337643      -2.71741345       0.00000000
