10
Lattice="16.28999089631971 0.0 0.0 0.0 16.28999089631971 0.0 0.0 0.0 34.5300574570662" Properties=species:S:1:pos:R:3:initial_magmoms:R:1 pbc="T T T"
Si       1.32708114       1.36609569       1.35931100       0.00000000
Si      -1.35520583       1.35275418      -1.36013972       0.00000000
Si       1.35988920      -1.36112724      -1.36034690       0.00000000
Si      -1.35917244      -1.35738054       1.39004277       0.00000000
Si       2.66590737       0.00853596       2.67535582       0.00000000
Si      -2.71045142       2.71073745       0.00379831       0.00000000
Si      -2.71175462      -0.00283446      -2.71786234       0.00000000
Si       2.71513575       2.71459818      -0.00231352       0.00000000
Si       0.00320913       2.71272483      -2.71762063       0.00000000
Si      -2.71261779      -2.71808424      -0.00072513       0.00000000
