10
Lattice="16.28999089631971 0.0 0.0 0.0 16.28999089631971 0.0 0.0 0.0 34.5300574570662" Properties=species:S:1:pos:R:3:initial_magmoms:R:1 pbc="T T T"
Si      -0.56340594      -1.98910674      -1.03790505       0.00000000
Si       1.89091062       0.67769658      -1.22671551       0.00000000
Si      -2.01892721       1.03290003      -0.74236212       0.00000000
Si       0.49655178      -1.06875432       2.11821303       0.00000000
Si       1.52133939      -2.99346669      -1.50796298       0.00000000
Si      -2.09174188      -3.05435871       0.40455438       0.00000000
Si      -1.53703155      -2.24148771       2.57715228       0.00000000
Si       2.15560683       2.95187832      -1.02837475       0.00000000
Si      -2.23392752       0.48052242      -3.06903322       0.00000000
Si      -3.80056193       0.01410714       0.46632869       0.00000000
