10
Lattice="16.28999089631971 0.0 0.0 0.0 16.28999089631971 0.0 0.0 0.0 34.5300574570662" Properties=species:S:1:pos:R:3:initial_magmoms:R:1 pbc="T T T"
Si      -1.35630540       1.35573525       1.36000160       0.00000000
Si      -1.35094599      -1.34583093      -1.37691443       0.00000000
Si       1.35835794      -1.36251189       1.36055408       0.00000000
Si       1.37011932       1.33164234      -1.39807101       0.00000000
Si       0.19152153      -2.61208521      -2.66844635       0.00000000
Si      -0.11881926       2.61918765      -2.76255117       0.00000000
Si      -2.71060713       2.71155195       0.00062154       0.00000000
Si      -2.71331127      -0.00182448       2.71803499       0.00000000
Si       0.00040725       2.71332756       2.71827670       0.00000000
Si      -2.71341553      -2.71974582      -0.00169197       0.00000000
