10
Lattice="16.28999089631971 0.0 0.0 0.0 16.28999089631971 0.0 0.0 0.0 34.5300574570662" Properties=species:S:1:pos:R:3:initial_magmoms:R:1 pbc="T T T"
Si       1.35969372       1.35151614      -1.35791253       0.00000000
Si       1.35430173      -1.35581670       1.35938006       0.00000000
Si      -1.35960317       1.35749457       1.35944912       0.00000000
Si      -1.36787849      -1.36731744      -1.36853399       0.00000000
Si       2.59178787      -0.09236430      -2.76317271       0.00000000
Si       2.71060713      -2.71155195      -0.00062154       0.00000000
Si       2.70751203       2.71856221       0.00345301       0.00000000
Si       2.71101438       0.00177561       2.71765516       0.00000000
Si      -0.00270414      -2.71337643       2.71741345       0.00000000
Si      -2.72092589      -2.70990666       0.00024171       0.00000000
