10
Lattice="16.28999089631971 0.0 0.0 0.0 16.28999089631971 0.0 0.0 0.0 34.5300574570662" Properties=species:S:1:pos:R:3:initial_magmoms:R:1 pbc="T T T"
Si       1.35656604      -1.35720135      -1.35675578       0.00000000
Si      -1.35684949       1.35648526      -1.35730826       0.00000000
Si      -1.35653509      -1.35827649       1.35730826       0.00000000
Si       1.35796698       1.35729813       1.35813698       0.00000000
Si       0.00058644       2.71427957      -2.71378779       0.00000000
Si       2.71448415      -0.00065448      -2.71423668       0.00000000
Si      -2.71405151      -0.00148239      -2.71496181       0.00000000
Si      -2.71434371       2.71480085       0.00107043       0.00000000
Si      -2.71416493      -2.71557558       0.00000000       0.00000000
Si      -0.00014661      -2.71479366      -2.71503088       0.00000000
