10
Lattice="16.28999089631971 0.0 0.0 0.0 16.28999089631971 0.0 0.0 0.0 34.5300574570662" Properties=species:S:1:pos:R:3:initial_magmoms:R:1 pbc="T T T"
Si       1.35701245      -1.35677781      -1.35699749       0.00000000
Si       1.35762984       1.35729909       1.35730826       0.00000000
Si      -1.35889612      -1.35550719       1.35837869       0.00000000
Si      -1.35817936       1.35819504      -1.35737732       0.00000000
Si      -0.00020443      -2.71283886      -2.71465104       0.00000000
Si      -2.71495717      -0.00076563      -2.71278642       0.00000000
Si       2.71639666      -0.00210141       2.71240659       0.00000000
Si       2.71401832       0.00078192      -2.71503088       0.00000000
Si       0.00011342       2.71409319      -2.71496181       0.00000000
Si       2.71458847      -2.71466334       0.00048342       0.00000000
