10
Lattice="16.28999089631971 0.0 0.0 0.0 16.28999089631971 0.0 0.0 0.0 34.5300574570662" Properties=species:S:1:pos:R:3:initial_magmoms:R:1 pbc="T T T"
Si       1.35653509       1.35827649      -1.35730826       0.00000000
Si      -1.35762984      -1.35729909      -1.35730826       0.00000000
Si       1.35876682      -1.35940050       1.35509833       0.00000000
Si      -1.35702772       1.35957969       1.36010519       0.00000000
Si       2.71310113       0.00107514      -2.71406403       0.00000000
Si       2.71370386      -2.71355562       0.00017265       0.00000000
Si      -2.71530421       2.71307248       0.00103590       0.00000000
Si      -0.00061739      -2.71407690      -2.71430574       0.00000000
Si      -2.71652596      -2.71280628       0.00107043       0.00000000
Si      -0.00031440       2.71476175      -2.71461651       0.00000000
