10
Lattice="16.28999089631971 0.0 0.0 0.0 16.28999089631971 0.0 0.0 0.0 34.5300574570662" Properties=species:S:1:pos:R:3:initial_magmoms:R:1 pbc="T T T"
Si      -0.12060318       0.33762654      -2.33102189       0.00000000
Si       0.63916747       2.11648218       0.94495008       0.00000000
Si      -2.37184096      -0.38375982       0.25911370       0.00000000
Si       1.43839723      -1.60801848       1.12081176       0.00000000
Si      -3.05181814       1.35012402       1.64187062       0.00000000
Si      -2.64624601      -2.18189889       1.70402476       0.00000000
Si      -1.08864508      -1.55509227      -3.35804996       0.00000000
Si       0.72461341      -1.93717422       3.38104700       0.00000000
Si      -0.75830017       3.90753836       0.18704943       0.00000000
Si       0.42034553       2.12717493       3.34430699       0.00000000
