10
Lattice="16.28999089631971 0.0 0.0 0.0 16.28999089631971 0.0 0.0 0.0 34.28971787722196" Properties=species:S:1:pos:R:3:initial_magmoms:R:1 pbc="T T T"
Si       0.93447585       1.69665237       1.27940152       0.00000000
Si      -1.74885205      -1.03216372       1.24032494       0.00000000
Si      -0.58485987       1.22999274      -2.00815586       0.00000000
Si       1.89094320      -1.76223428      -0.22584391       0.00000000
Si       2.41206030      -0.45473535      -2.25812804       0.00000000
Si      -1.35438318      -2.93004062      -1.05599844       0.00000000
Si       1.65330468       1.99572048      -2.29060042       0.00000000
Si       2.31818103       0.33835959       2.63405188       0.00000000
Si      -0.38942874      -2.39002712       2.61908783       0.00000000
Si       2.62853811       2.57139279      -0.08669615       0.00000000
