10
Lattice="16.28999089631971 0.0 0.0 0.0 16.28999089631971 0.0 0.0 0.0 34.28971787722196" Properties=species:S:1:pos:R:3:initial_magmoms:R:1 pbc="T T T"
Si       0.69504543       0.52949016       2.15006938       0.00000000
Si      -0.11484450      -2.31234921       0.22326048       0.00000000
Si       1.88366157       1.15152381      -0.96433027       0.00000000
Si      -2.03674589       1.31798971       0.10777264       0.00000000
Si       1.06854255       2.85007301       1.50045031       0.00000000
Si      -1.28326593       2.85663788      -1.48381979       0.00000000
Si      -1.39640486      -1.11615822      -2.98783624       0.00000000
Si      -0.83423371       1.25781070      -3.21726887       0.00000000
Si       0.94727979       3.34532159      -0.78403484       0.00000000
Si      -1.35531823       0.42676542       3.31554325       0.00000000
