10
Lattice="16.28999089631971 0.0 0.0 0.0 16.28999089631971 0.0 0.0 0.0 34.28971787722196" Properties=species:S:1:pos:R:3:initial_magmoms:R:1 pbc="T T T"
Si      -0.69504543      -0.52949016      -2.15006938       0.00000000
Si      -2.05036366      -0.10272474       1.16547387       0.00000000
Si       1.84046049      -0.49203945       1.39778684       0.00000000
Si       0.37349712       2.32058285      -0.64961907       0.00000000
Si       1.77029946       1.74253871       2.22032905       0.00000000
Si       1.18861614       0.62203365      -3.11439966       0.00000000
Si      -3.01978223       1.73198605       0.11538497       0.00000000
Si      -2.73179132       0.78849955      -2.04229674       0.00000000
Si      -0.80988993      -2.84183937      -1.92680890       0.00000000
Si      -1.33496713       3.30402644       0.51763787       0.00000000
