10
Lattice="16.28999089631971 0.0 0.0 0.0 16.28999089631971 0.0 0.0 0.0 34.28971787722196" Properties=species:S:1:pos:R:3:initial_magmoms:R:1 pbc="T T T"
Si       0.82046214       0.65759472      -2.09154335       0.00000000
Si       1.99145250       0.65019906       1.15846334       0.00000000
Si      -1.87551657       1.54021950      -0.11854618       0.00000000
Si      -0.83017098      -2.02501316       1.14429139       0.00000000
Si       0.54563355       2.02844709       2.57708462       0.00000000
Si      -2.09199438      -1.48590864      -2.28997806       0.00000000
Si      -2.18587365      -0.69281370       2.60220185       0.00000000
Si       0.00364896      -1.19378007      -3.31335527       0.00000000
Si      -0.91496043       3.32337177       1.14799468       0.00000000
Si      -2.85075000       0.96454719      -2.32245044       0.00000000
