10
Lattice="16.28999089631971 0.0 0.0 0.0 16.28999089631971 0.0 0.0 0.0 34.28971787722196" Properties=species:S:1:pos:R:3:initial_magmoms:R:1 pbc="T T T"
Si      -1.35402480       1.35582484       1.35873083       0.00000000
Si       1.36086660       1.35338134      -1.35823706       0.00000000
Si       1.35739683      -1.35870239       1.35814790       0.00000000
Si      -1.34674317      -1.37500536      -1.37320110       0.00000000
Si      -0.02283858       2.71167413      -2.71288741       0.00000000
Si      -2.71353281       2.71162525      -0.00205738       0.00000000
Si      -2.71275415      -0.00160131       2.71543857       0.00000000
Si       2.71722087       2.71115284      -0.00041148       0.00000000
Si       0.00177561       2.71333570       2.71602149       0.00000000
Si      -2.71347091      -2.71625880       0.00147446       0.00000000
