10
Lattice="16.28999089631971 0.0 0.0 0.0 16.28999089631971 0.0 0.0 0.0 34.28971787722196" Properties=species:S:1:pos:R:3:initial_magmoms:R:1 pbc="T T T"
Si       1.35718506      -1.35418656      -1.36438864       0.00000000
Si      -1.35961227       1.35964177      -1.36404574       0.00000000
Si      -1.36471104      -1.36565472       1.35636484       0.00000000
Si       1.36818081       1.38698291       1.36915491       0.00000000
Si      -2.71143792      -2.71083405      -0.00558923       0.00000000
Si       2.71423980      -2.70878151      -0.00798951       0.00000000
Si      -0.00107514      -2.71099695      -2.72082205       0.00000000
Si      -2.71298547       2.72089444      -0.00353184       0.00000000
Si       2.71269225       2.72183926      -0.00737229       0.00000000
Si       2.71476108       0.00387512      -2.72023913       0.00000000
