10
Lattice="16.28999089631971 0.0 0.0 0.0 16.28999089631971 0.0 0.0 0.0 34.28971787722196" Properties=species:S:1:pos:R:3:initial_magmoms:R:1 pbc="T T T"
Si      -0.74922597      -1.97734536       1.15820445       0.00000000
Si      -1.43852103       1.26087858      -1.49938733       0.00000000
Si       1.29596724      -1.41739779      -1.50730826       0.00000000
Si       0.79302978       1.82283471       1.43968890       0.00000000
Si       2.64515391       2.74395276       0.02516867       0.00000000
Si      -1.05832872       3.49702317       1.15731291       0.00000000
Si       2.70480789      -2.79243788      -0.19209111       0.00000000
Si      -0.07439643       2.63112822      -2.87824624       0.00000000
Si      -2.97992970       2.52045396       0.07567745       0.00000000
Si       2.64047868      -0.08254143      -2.88383546       0.00000000
