10
Lattice="16.28999089631971 0.0 0.0 0.0 16.28999089631971 0.0 0.0 0.0 34.28971787722196" Properties=species:S:1:pos:R:3:initial_magmoms:R:1 pbc="T T T"
Si       0.41171346       1.71261657       1.55579395       0.00000000
Si       1.97477154      -1.28008449       0.42409547       0.00000000
Si      -1.67164722      -1.68757884      -0.29163421       0.00000000
Si      -0.84039458       1.40996466      -1.85120003       0.00000000
Si       2.38348764      -1.15494471      -1.85949815       0.00000000
Si       1.05642279       2.81888676      -1.87729452       0.00000000
Si      -1.77082400       2.08336068       2.35375042       0.00000000
Si       2.70119151       1.15090479      -2.16193363       0.00000000
Si      -1.35135650      -2.10477388      -2.66283811       0.00000000
Si      -3.66600653      -0.70097499       0.49750979       0.00000000
