10
Lattice="16.28999089631971 0.0 0.0 0.0 16.28999089631971 0.0 0.0 0.0 34.28971787722196" Properties=species:S:1:pos:R:3:initial_magmoms:R:1 pbc="T T T"
Si       1.35534429      -1.35159759       1.35691347       0.00000000
Si      -1.35773892      -1.35448092      -1.35663916       0.00000000
Si       1.35689184       1.35993807      -1.35674203       0.00000000
Si      -1.35953082       1.36207206       1.36250270       0.00000000
Si       0.01083285      -2.68645395       2.73344068       0.00000000
Si       2.71378368      -2.71244301      -0.00037719       0.00000000
Si      -0.00024435      -2.71245442      -2.71386124       0.00000000
Si      -2.71523349       0.00247608      -2.71372408       0.00000000
Si       2.71516833       0.00221544      -2.71416985       0.00000000
Si       2.71378368       2.71689507      -0.00085724       0.00000000
