10
Lattice="16.28999089631971 0.0 0.0 0.0 16.28999089631971 0.0 0.0 0.0 34.28971787722196" Properties=species:S:1:pos:R:3:initial_magmoms:R:1 pbc="T T T"
Si      -0.31770387      -2.30584950       0.30243548       0.00000000
Si      -1.64476872       1.66798197       0.28463911       0.00000000
Si       1.66998564       0.19145637       1.65766876       0.00000000
Si       1.23144255       1.07997813      -1.74709639       0.00000000
Si      -0.63161217       2.68776855      -1.74308449       0.00000000
Si      -3.54158609       0.25905987       0.31073360       0.00000000
Si       1.77435567      -3.13065781      -0.27736968       0.00000000
Si      -0.72641997      -2.43098928       2.58602910       0.00000000
Si      -2.70119151      -1.15090479       2.16193363       0.00000000
Si       3.85603848      -0.09752823       0.74041829       0.00000000
