10
Lattice="16.28999089631971 0.0 0.0 0.0 16.28999089631971 0.0 0.0 0.0 34.28971787722196" Properties=species:S:1:pos:R:3:initial_magmoms:R:1 pbc="T T T"
Si      -0.35885241      -2.13009669      -0.90679210       0.00000000
Si       0.99427644       1.25302680      -1.74112998       0.00000000
Si      -1.88413398       1.20158298       0.81129518       0.00000000
Si       1.77798834      -0.54330408       1.48313400       0.00000000
Si       1.82720043      -2.41908129      -1.82404256       0.00000000
Si       3.16364832       1.65529206      -0.82929729       0.00000000
Si      -1.42161201       3.40376292      -0.01323584       0.00000000
Si       3.00600999      -2.24748243       0.21540813       0.00000000
Si      -3.82266027       0.25894584      -0.10259489       0.00000000
Si       3.39964155       1.17731088       1.48436843       0.00000000
