10
Lattice="16.28999089631971 0.0 0.0 0.0 16.28999089631971 0.0 0.0 0.0 34.28971787722196" Properties=species:S:1:pos:R:3:initial_magmoms:R:1 pbc="T T T"
Si       2.00580399       0.61685343      -1.00928412       0.00000000
Si      -0.94058460      -0.76352859      -2.05251508       0.00000000
Si       0.70602489      -2.04310809       1.14911767       0.00000000
Si       0.48371526       2.41007292       0.69289272       0.00000000
Si      -2.96518725      -1.73615562       0.91821058       0.00000000
Si       1.25169102       1.63685178      -2.95659829       0.00000000
Si       0.25011666      -2.85288399      -2.24573775       0.00000000
Si       2.82673854       2.27338353       0.46894644       0.00000000
Si      -3.07602441      -1.55492937      -1.50432505       0.00000000
Si       0.03886794       3.32053731      -1.84886833       0.00000000
