10
Lattice="16.28999089631971 0.0 0.0 0.0 16.28999089631971 0.0 0.0 0.0 34.28971787722196" Properties=species:S:1:pos:R:3:initial_magmoms:R:1 pbc="T T T"
Si       1.41276654       1.54331460      -1.10721561       0.00000000
Si      -1.27062000      -1.13787279      -1.68479194       0.00000000
Si       1.06942221      -1.22609943       1.76688157       0.00000000
Si      -1.41649695       1.51309665       1.23844243       0.00000000
Si       1.30435659       0.58660290       3.26500018       0.00000000
Si      -0.24218343       3.03542973      -1.89807410       0.00000000
Si      -3.48265539       0.46476999       1.30222134       0.00000000
Si      -3.09803220       0.27471456      -2.21206523       0.00000000
Si       2.22400854       3.11435478       0.47093525       0.00000000
Si      -1.73314197      -3.34005273      -0.86026092       0.00000000
