10
Lattice="16.28999089631971 0.0 0.0 0.0 16.28999089631971 0.0 0.0 0.0 34.28971787722196" Properties=species:S:1:pos:R:3:initial_magmoms:R:1 pbc="T T T"
Si      -1.80700083      -0.68571126      -1.34731235       0.00000000
Si      -0.55695510       1.02856689       2.06033314       0.00000000
Si       1.04352111      -1.97040582       0.83228050       0.00000000
Si       1.54316799       1.54052901      -1.06507352       0.00000000
Si       1.57667652       0.77789637       3.01009028       0.00000000
Si       2.78949960      -0.90578916       1.90236032       0.00000000
Si      -3.25690857       1.03335615      -0.79538474       0.00000000
Si      -2.27872665      -0.21405060       2.92824067       0.00000000
Si       1.77810237       3.35323134       0.43304509       0.00000000
Si      -2.91253797      -2.48433903      -0.09446823       0.00000000
