10
Lattice="16.28999089631971 0.0 0.0 0.0 16.28999089631971 0.0 0.0 0.0 34.28971787722196" Properties=species:S:1:pos:R:3:initial_magmoms:R:1 pbc="T T T"
Si       0.88060482      -0.32475744       2.10392984       0.00000000
Si      -1.81128510       1.56413322       0.13287273       0.00000000
Si      -1.81946268      -1.47913200      -0.90943241       0.00000000
Si       1.59857028       2.02983174      -0.30737320       0.00000000
Si      -0.39684069       2.37143304      -1.63287728       0.00000000
Si      -0.91939131      -1.20246264       3.32851304       0.00000000
Si      -3.61213157       0.31887675      -0.85364300       0.00000000
Si       3.18407598      -2.15360316      -0.40815074       0.00000000
Si      -0.40669614       1.16848170      -3.67846583       0.00000000
Si       2.64054384      -2.04007815       2.00605249       0.00000000
