10
Lattice="16.28999089631971 0.0 0.0 0.0 16.28999089631971 0.0 0.0 0.0 34.28971787722196" Properties=species:S:1:pos:R:3:initial_magmoms:R:1 pbc="T T T"
Si       1.35687555      -1.35715248       1.35739353       0.00000000
Si       1.35830907       1.35705474      -1.35811361       0.00000000
Si      -1.35861858       1.35804843       1.35718779       0.00000000
Si      -1.35734796      -1.35812988      -1.35852509       0.00000000
Si       2.71490769      -0.00053757       2.71331260       0.00000000
Si      -0.00035838       2.71485882       2.71362121       0.00000000
Si       2.71445157      -2.71419093       0.00000000       0.00000000
Si       2.71440270       2.71534752       0.00068579       0.00000000
Si      -2.71568961      -2.71472850      -0.00017145       0.00000000
Si       0.00193851      -2.71440270      -2.71639868       0.00000000
