10
Lattice="16.28999089631971 0.0 0.0 0.0 16.28999089631971 0.0 0.0 0.0 34.28971787722196" Properties=species:S:1:pos:R:3:initial_magmoms:R:1 pbc="T T T"
Si       1.14287382       1.83065391       0.88206920       0.00000000
Si      -1.15572663       1.45256301      -1.47939641       0.00000000
Si       1.54512279      -1.23942465      -1.46451467       0.00000000
Si      -1.81770336      -1.03966038       1.43067070       0.00000000
Si       1.84555926       0.09866853       2.58856654       0.00000000
Si       3.30056577      -0.52401672       0.54092060       0.00000000
Si      -2.50297479       2.68216479      -0.00596641       0.00000000
Si      -2.50245351       0.10738368      -2.84135048       0.00000000
Si       2.68452684      -2.68809435       0.03631283       0.00000000
Si      -2.65271247      -2.76341931      -0.00476627       0.00000000
