10
Lattice="16.28999089631971 0.0 0.0 0.0 16.28999089631971 0.0 0.0 0.0 34.28971787722196" Properties=species:S:1:pos:R:3:initial_magmoms:R:1 pbc="T T T"
Si      -0.00785178      -2.10826809       1.12261170       0.00000000
Si       1.16646174      -0.58593501      -2.01390484       0.00000000
Si      -1.62463428       1.23178464       1.43262521       0.00000000
Si       2.06951418       1.19303073       0.81774165       0.00000000
Si      -1.96983567       1.22802165      -1.08300705       0.00000000
Si       0.51956955       1.50833087       2.67449662       0.00000000
Si      -0.57536280      -1.47947409      -3.20194136       0.00000000
Si       3.63265371      -0.50700996       0.35510452       0.00000000
Si       2.82141171      -2.07805014      -1.22304634       0.00000000
Si       2.46448152       2.62132557      -1.07481181       0.00000000
