10
Lattice="16.28999089631971 0.0 0.0 0.0 16.28999089631971 0.0 0.0 0.0 34.28971787722196" Properties=species:S:1:pos:R:3:initial_magmoms:R:1 pbc="T T T"
Si      -1.35563751       1.35500220      -1.35855938       0.00000000
Si      -1.35609363      -1.35774544       1.35773643       0.00000000
Si       1.35987291      -1.35542900      -1.35732495       0.00000000
Si       1.35931905       1.35692442       1.35742782       0.00000000
Si      -0.01045818      -2.70279512      -2.72424417       0.00000000
Si      -2.71199178      -0.00276930      -2.71638496       0.00000000
Si      -2.71358820       0.00022806       2.71495851       0.00000000
Si      -2.71407690       2.71456560       0.00041148       0.00000000
Si       0.00104256       2.71464705       2.71485564       0.00000000
Si      -2.71546155      -2.71485304       0.00000000       0.00000000
