10
Lattice="16.28999089631971 0.0 0.0 0.0 16.28999089631971 0.0 0.0 0.0 34.28971787722196" Properties=species:S:1:pos:R:3:initial_magmoms:R:1 pbc="T T T"
Si       1.35438318      -1.35521611      -1.35855938       0.00000000
Si      -1.35793440      -1.35594916       1.35763356       0.00000000
Si       1.35669636       1.35870508       1.35657058       0.00000000
Si      -1.35681039       1.36104758      -1.35825077       0.00000000
Si       0.00024435       2.69471314      -2.72500197       0.00000000
Si       2.71461447      -2.71240117      -0.00120014       0.00000000
Si      -0.00065160      -2.71305277       2.71468419       0.00000000
Si      -2.71402803      -2.71424194      -0.00116585       0.00000000
Si       2.71463076       0.00111685       2.71430700       0.00000000
Si       2.71417464       2.71533628      -0.00113156       0.00000000
