10
Lattice="16.28999089631971 0.0 0.0 0.0 16.28999089631971 0.0 0.0 0.0 34.28971787722196" Properties=species:S:1:pos:R:3:initial_magmoms:R:1 pbc="T T T"
Si      -1.35325917       1.35816246       1.35722208       0.00000000
Si       1.36075257      -1.35550719       1.35650200       0.00000000
Si      -1.33584516      -1.35343836      -1.38424582       0.00000000
Si       1.35136953       1.36247931      -1.37396576       0.00000000
Si      -2.70907587       2.71588509      -0.00126872       0.00000000
Si      -2.71158453       0.00045612       2.71502709       0.00000000
Si      -2.71099809      -2.71692765      -0.00130301       0.00000000
Si       0.00395847      -2.71500543       2.71468419       0.00000000
Si       0.00343719       2.71609686       2.71512996       0.00000000
Si       2.71808424      -2.71560816      -0.00394332       0.00000000
