10
Lattice="16.28999089631971 0.0 0.0 0.0 16.28999089631971 0.0 0.0 0.0 34.28971787722196" Properties=species:S:1:pos:R:3:initial_magmoms:R:1 pbc="T T T"
Si      -1.35275418      -1.34991972      -1.35687918       0.00000000
Si      -1.17905391       1.49972256       1.36318850       0.00000000
Si       1.36348929       1.35972630      -1.35533615       0.00000000
Si       1.20826188      -1.35425286       1.51543493       0.00000000
Si       2.13697107       0.60274629       2.74821955       0.00000000
Si       0.51649074       2.39914233       2.75209429       0.00000000
Si      -2.54485638       0.24250923       2.74876819       0.00000000
Si       0.00360009      -2.70954828      -2.71742737       0.00000000
Si      -2.71181259       0.00465894      -2.71804459       0.00000000
Si       2.71712313      -2.71394658       0.04567393       0.00000000
