10
Lattice="16.28999089631971 0.0 0.0 0.0 16.28999089631971 0.0 0.0 0.0 34.28971787722196" Properties=species:S:1:pos:R:3:initial_magmoms:R:1 pbc="T T T"
Si       1.96560027      -1.29349116       0.14823453       0.00000000
Si      -1.62165321      -1.72061496      -0.00123443       0.00000000
Si      -0.23599323       0.47798118      -2.31366572       0.00000000
Si      -0.14274927       1.69766235       1.70584584       0.00000000
Si       1.79716167      -2.61876411      -1.76283538       0.00000000
Si       3.65141979       0.35632746       0.02534012       0.00000000
Si      -0.39363156      -3.42479331      -1.26896030       0.00000000
Si       1.29380067      -0.97770951      -3.33649428       0.00000000
Si       0.94227876       2.43571338      -2.66575274       0.00000000
Si       1.78033410      -2.50791066       2.18288466       0.00000000
