10
Lattice="16.28999089631971 0.0 0.0 0.0 16.28999089631971 0.0 0.0 0.0 34.28971787722196" Properties=species:S:1:pos:R:3:initial_magmoms:R:1 pbc="T T T"
Si      -0.50336100       1.64105460      -1.57365890       0.00000000
Si       0.16843860       1.32527295       1.91106991       0.00000000
Si       1.78572609      -1.13798682      -1.07316590       0.00000000
Si      -2.19079323      -0.80602920       0.49387508       0.00000000
Si       0.55151424      -1.67018112      -2.97401747       0.00000000
Si      -1.96330338       0.39107403      -2.89655696       0.00000000
Si      -1.79716167       2.61876411       1.76283538       0.00000000
Si      -2.03315490       3.09674529      -0.55083034       0.00000000
Si       3.46923243       0.50797107      -1.36805764       0.00000000
Si      -3.36960279      -0.97762806      -1.54557561       0.00000000
