10
Lattice="16.28999089631971 0.0 0.0 0.0 16.28999089631971 0.0 0.0 0.0 34.28971787722196" Properties=species:S:1:pos:R:3:initial_magmoms:R:1 pbc="T T T"
Si       1.22631772       1.50408828      -1.27172988       0.00000000
Si      -1.29960058       1.32105384       1.40457964       0.00000000
Si      -1.20322045      -1.22808681      -1.63173341       0.00000000
Si       1.40448145      -1.37989332       1.38735590       0.00000000
Si      -2.29123804       0.60993018      -2.62802172       0.00000000
Si       1.89653719       0.31879530      -3.13592131       0.00000000
Si      -2.55754696      -2.64719016      -0.20740833       0.00000000
Si      -2.68407139       2.63824695       0.03519842       0.00000000
Si      -2.65450504      -0.03940551       2.75520780       0.00000000
Si       0.06318239       2.67882534       2.74948142       0.00000000
