10
Lattice="16.28999089631971 0.0 0.0 0.0 16.28999089631971 0.0 0.0 0.0 34.28971787722196" Properties=species:S:1:pos:R:3:initial_magmoms:R:1 pbc="T T T"
Si      -2.33846208       0.44056305       0.24822341       0.00000000
Si       0.64583334      -0.94726350       2.10508125       0.00000000
Si       0.14274927      -1.69766235      -1.70584584       0.00000000
Si       1.19298186       2.17220634       0.13040387       0.00000000
Si      -2.10352770       2.25326538       1.74634202       0.00000000
Si       1.09432962       0.88453071       3.56757282       0.00000000
Si      -0.49039416       3.73115934       0.90024276       0.00000000
Si      -1.09213047      -2.00575512       3.21565725       0.00000000
Si       2.38501890       2.27563155       2.19858936       0.00000000
Si       2.10834954      -2.99115351      -1.55761131       0.00000000
