10
Lattice="16.28999089631971 0.0 0.0 0.0 16.28999089631971 0.0 0.0 0.0 34.28971787722196" Properties=species:S:1:pos:R:3:initial_magmoms:R:1 pbc="T T T"
Si      -1.17665928      -1.90664676       0.57085554       0.00000000
Si      -0.39833937       1.35630540       1.83117483       0.00000000
Si      -0.97523343       0.66868821      -2.00618965       0.00000000
Si       2.22262389      -0.70004646      -0.18495884       0.00000000
Si       1.77412761      -2.53184067      -1.64745042       0.00000000
Si       0.63790011       2.14658217      -2.85228891       0.00000000
Si       0.03616380      -3.59033229      -0.53687441       0.00000000
Si      -0.78934824       3.48793335       0.70427691       0.00000000
Si       2.79720477      -1.06526826       2.10590420       0.00000000
Si      -3.31029090      -1.65597624      -0.37890159       0.00000000
