10
Lattice="16.28999089631971 0.0 0.0 0.0 16.28999089631971 0.0 0.0 0.0 34.28971787722196" Properties=species:S:1:pos:R:3:initial_magmoms:R:1 pbc="T T T"
Si      -1.28490633       1.37060802       1.41059749       0.00000000
Si       1.45277478      -1.35048987       1.39288341       0.00000000
Si      -1.01165787      -1.76588487      -1.31720737       0.00000000
Si       1.62865791       1.20049155      -1.51571066       0.00000000
Si       0.83583990      -3.42388107      -1.18429345       0.00000000
Si      -2.63073726       2.73843438      -0.03945377       0.00000000
Si      -2.63055807      -0.00026064       2.77494498       0.00000000
Si      -2.66721057      -2.76609087       0.02797357       0.00000000
Si       0.08757504      -2.71669959       2.77703665       0.00000000
Si       0.08542476       2.71797414       2.77751671       0.00000000
