10
Lattice="16.28999089631971 0.0 0.0 0.0 16.28999089631971 0.0 0.0 0.0 34.28971787722196" Properties=species:S:1:pos:R:3:initial_magmoms:R:1 pbc="T T T"
Si      -1.30564350       1.38557964       1.33191626       0.00000000
Si      -1.36842516      -1.33514469      -1.36044532       0.00000000
Si       1.35089712       1.38060200      -1.35667345       0.00000000
Si       1.26337095      -1.49923386       1.52061268       0.00000000
Si      -0.99108360      -1.96859763       2.02422605       0.00000000
Si       0.30994983       1.63322141       3.03052696       0.00000000
Si       2.20604067       0.06978636       3.02240029       0.00000000
Si       2.68281639      -2.69325828       0.00267460       0.00000000
Si      -0.01021383      -2.69594613      -2.71715305       0.00000000
Si       2.70236439       0.01865205      -2.71619294       0.00000000
