10
Lattice="16.28999089631971 0.0 0.0 0.0 16.28999089631971 0.0 0.0 0.0 34.28971787722196" Properties=species:S:1:pos:R:3:initial_magmoms:R:1 pbc="T T T"
Si      -1.17729459      -1.93530087      -0.55631669       0.00000000
Si      -2.07625824       1.12185550       0.10756691       0.00000000
Si       0.93182058       0.09572004       2.18470202       0.00000000
Si       1.57874535       1.04383292      -1.59766172       0.00000000
Si      -1.87998003      -0.20331549      -2.26281404       0.00000000
Si      -0.03684798       0.79619115      -3.29627242       0.00000000
Si      -1.67990625       2.20914621       2.10964178       0.00000000
Si      -0.56052261      -3.06942696       1.65249101       0.00000000
Si       2.07761031      -2.92970763       0.66710683       0.00000000
Si       0.27771192      -2.55798612      -2.60396263       0.00000000
