10
Lattice="16.28999089631971 0.0 0.0 0.0 16.28999089631971 0.0 0.0 0.0 34.28971787722196" Properties=species:S:1:pos:R:3:initial_magmoms:R:1 pbc="T T T"
Si      -0.61603893      -2.16407763      -0.50460777       0.00000000
Si       2.25445455       0.46936377      -0.50361337       0.00000000
Si      -1.45500651       0.62268525       2.04764594       0.00000000
Si      -1.75544298      -0.71540793      -2.00543527       0.00000000
Si      -0.09107739      -1.75368366       2.28801699       0.00000000
Si       0.99108360       1.96859763      -2.02422605       0.00000000
Si      -2.15769195       2.35467063       0.34114859       0.00000000
Si      -3.30056577       0.52401672      -0.54092060       0.00000000
Si      -0.31455990       3.35417727      -0.69230979       0.00000000
Si      -0.37734156       0.63345294      -3.38467136       0.00000000
