10
Lattice="16.28999089631971 0.0 0.0 0.0 16.28999089631971 0.0 0.0 0.0 34.28971787722196" Properties=species:S:1:pos:R:3:initial_magmoms:R:1 pbc="T T T"
Si      -0.69348159       1.04985792      -1.94796567       0.00000000
Si      -1.61313354      -1.47789396       0.84609926       0.00000000
Si       1.68337602      -1.55895300      -0.76983889       0.00000000
Si       0.05299137       1.74296484       1.71102359       0.00000000
Si       2.87541306      -1.45552779       1.29834660       0.00000000
Si      -0.63790011      -2.14658217       2.85228891       0.00000000
Si       1.28192526       2.05760619      -2.76474721       0.00000000
Si      -0.96407478       3.60729737       0.45625924       0.00000000
Si      -1.84806792      -3.29059629      -0.65201935       0.00000000
Si      -2.25662112       2.74989861      -1.48532854       0.00000000
