10
Lattice="16.28999089631971 0.0 0.0 0.0 16.28999089631971 0.0 0.0 0.0 34.28971787722196" Properties=species:S:1:pos:R:3:initial_magmoms:R:1 pbc="T T T"
Si       2.02077450       0.46584513       1.15114076       0.00000000
Si      -1.48023972      -0.40161366       1.84554223       0.00000000
Si      -0.05299137      -1.74296484      -1.71102359       0.00000000
Si      -1.01706615       1.86433253      -1.25476435       0.00000000
Si      -3.47789871      -0.12953808       0.51945523       0.00000000
Si       2.28463992       2.72838671       0.57164421       0.00000000
Si       1.27164627       0.71433279       3.33591136       0.00000000
Si      -1.66612491      -3.22085880      -0.86492433       0.00000000
Si      -0.74647296      -0.69310692      -3.65898926       0.00000000
Si       3.71815992      -1.05968079       0.25844175       0.00000000
