10
Lattice="16.28999089631971 0.0 0.0 0.0 16.28999089631971 0.0 0.0 0.0 34.28971787722196" Properties=species:S:1:pos:R:3:initial_magmoms:R:1 pbc="T T T"
Si       0.39833937      -1.35630540      -1.83117483       0.00000000
Si      -1.91897829       0.01001835       1.38221930       0.00000000
Si      -0.39100887       2.13162795      -1.12689792       0.00000000
Si       2.07707274      -0.52030260       1.41962940       0.00000000
Si      -0.77831991      -3.26295216      -1.26031928       0.00000000
Si       0.03580542       3.62240031       0.63446300       0.00000000
Si      -0.14271669       0.47646621       3.69574786       0.00000000
Si       2.62096326      -2.05635186      -2.01613367       0.00000000
Si      -3.91438926       0.35161965       0.05671523       0.00000000
Si      -0.57689406      -0.68761719      -3.83736447       0.00000000
