10
Lattice="16.28999089631971 0.0 0.0 0.0 16.28999089631971 0.0 0.0 0.0 34.28971787722196" Properties=species:S:1:pos:R:3:initial_magmoms:R:1 pbc="T T T"
Si      -1.35382932      -1.35097857      -1.39939846       0.00000000
Si       1.36035851       1.36179513      -1.40169587       0.00000000
Si      -1.50886125       1.35969372       1.46976100       0.00000000
Si       1.30466610      -1.57020939       1.55212495       0.00000000
Si       2.70266480       2.71787247      -0.01687055       0.00000000
Si      -2.71712313       2.71394658      -0.04567393       0.00000000
Si      -2.71972953      -2.71717852      -0.00624073       0.00000000
Si       2.72412036      -2.72695252      -0.01563612       0.00000000
Si       2.33727521      -0.04235400       3.07681810       0.00000000
Si       0.00135207      -2.71125547      -2.76275840       0.00000000
