10
Lattice="16.28999089631971 0.0 0.0 0.0 16.28999089631971 0.0 0.0 0.0 34.28971787722196" Properties=species:S:1:pos:R:3:initial_magmoms:R:1 pbc="T T T"
Si       1.31984838       1.87110850      -0.39909825       0.00000000
Si       0.45727659      -1.88908681      -1.33469372       0.00000000
Si      -2.29446279       0.26073774      -0.66751831       0.00000000
Si      -0.65217015      -0.82996744       2.16128213       0.00000000
Si      -2.52568305      -1.58171080       0.83162899       0.00000000
Si      -1.39976712      -3.08705341      -0.54664699       0.00000000
Si       3.31420769       0.88450465      -1.18824226       0.00000000
Si       1.92625992       2.70898465       1.72151625       0.00000000
Si       0.07066602      -1.23471751      -3.57569949       0.00000000
Si      -1.03148280       1.00615837       3.57120753       0.00000000
