10
Lattice="16.28999089631971 0.0 0.0 0.0 16.28999089631971 0.0 0.0 0.0 34.28971787722196" Properties=species:S:1:pos:R:3:initial_magmoms:R:1 pbc="T T T"
Si       1.76301783       1.05713955       1.14877275       0.00000000
Si      -1.01167416      -1.73877831       1.29444584       0.00000000
Si      -1.71517410       1.80903708      -0.07533455       0.00000000
Si       0.38087649      -0.92978433      -2.39304646       0.00000000
Si      -1.91731671      -1.62507248      -1.98297549       0.00000000
Si      -2.52403776       0.69866181      -2.13566769       0.00000000
Si       0.34099857       2.30115798       2.74172649       0.00000000
Si      -2.40381756      -0.42771024       2.74316323       0.00000000
Si       1.58402331      -2.88271912      -1.92694606       0.00000000
Si      -2.21763915      -3.27885839      -0.18331293       0.00000000
