10
Lattice="16.28999089631971 0.0 0.0 0.0 16.28999089631971 0.0 0.0 0.0 34.28971787722196" Properties=species:S:1:pos:R:3:initial_magmoms:R:1 pbc="T T T"
Si      -1.76301783      -1.05713955      -1.14877275       0.00000000
Si       1.35432651       1.41910335      -1.42432508       0.00000000
Si      -1.42201926       1.24401843       1.59295374       0.00000000
Si       1.26166050      -1.44739908       1.57822972       0.00000000
Si       2.55754696       2.64719016       0.20740833       0.00000000
Si      -3.47819193       0.75189753      -1.22410730       0.00000000
Si      -2.69309538       2.67294465       0.30616963       0.00000000
Si       2.62720300      -2.83637896       0.20835473       0.00000000
Si      -2.77469199      -2.79591786       0.14567309       0.00000000
Si      -0.09695808       2.60778465       2.96261614       0.00000000
