10
Lattice="16.28999089631971 0.0 0.0 0.0 16.28999089631971 0.0 0.0 0.0 34.28971787722196" Properties=species:S:1:pos:R:3:initial_magmoms:R:1 pbc="T T T"
Si       1.92160098       0.97656921       1.08163547       0.00000000
Si      -1.17954261       1.46476422      -1.57043567       0.00000000
Si      -1.54493220      -1.29546225       1.52325299       0.00000000
Si       1.54140867      -1.25957538      -1.57506478       0.00000000
Si      -0.16092891       1.74514770       2.09016521       0.00000000
Si      -2.57754131      -2.82331764      -0.00144017       0.00000000
Si      -2.52184889       0.10868688      -2.95526099       0.00000000
Si      -2.62929464       2.86433586      -0.17282027       0.00000000
Si       2.97992970      -2.52045396      -0.07567745       0.00000000
Si       0.19473066      -2.60394021      -2.95567246       0.00000000
