10
Lattice="16.28999089631971 0.0 0.0 0.0 16.28999089631971 0.0 0.0 0.0 34.28971787722196" Properties=species:S:1:pos:R:3:initial_magmoms:R:1 pbc="T T T"
Si      -1.20826188       1.35425286      -1.51543493       0.00000000
Si      -1.47038427      -1.36120869       1.36257128       0.00000000
Si       0.92870919       1.95699915       1.23278463       0.00000000
Si       1.50886125      -1.35969372      -1.46976100       0.00000000
Si      -2.31969600       0.42132456       2.74719086       0.00000000
Si      -2.38731579       2.85397542      -0.15224643       0.00000000
Si       0.00702099      -2.59753824       2.68701237       0.00000000
Si      -2.56101606       0.00433314      -2.87231411       0.00000000
Si       2.76177402       2.75775039      -0.08901616       0.00000000
Si       0.15503193      -2.71067229      -2.86915946       0.00000000
