10
Lattice="16.28999089631971 0.0 0.0 0.0 16.28999089631971 0.0 0.0 0.0 34.28971787722196" Properties=species:S:1:pos:R:3:initial_magmoms:R:1 pbc="T T T"
Si       1.28575341      -1.33292925       1.50935879       0.00000000
Si      -2.02702986      -0.67256523      -1.08534699       0.00000000
Si       1.83969486       0.90828153      -1.38895522       0.00000000
Si      -1.41009498       1.40082597       1.49182987       0.00000000
Si       2.53847070       2.64246606       0.10880819       0.00000000
Si       3.45181842      -0.90725526      -1.15923657       0.00000000
Si       2.61992070      -2.71674846       0.15792824       0.00000000
Si      -0.55840491       2.16595098      -3.07913064       0.00000000
Si      -1.65473820      -0.01133784      -3.49437936       0.00000000
Si      -2.85648408      -2.64292218       0.11660568       0.00000000
