10
Lattice="16.28999089631971 0.0 0.0 0.0 16.28999089631971 0.0 0.0 0.0 34.28971787722196" Properties=species:S:1:pos:R:3:initial_magmoms:R:1 pbc="T T T"
Si       1.35552601      -1.35876519       1.35924518       0.00000000
Si      -1.35799956       1.35853713       1.35903944       0.00000000
Si       1.35321030       1.36788759      -1.35997212       0.00000000
Si      -1.36622601      -1.37023335      -1.36511558       0.00000000
Si      -0.11350872       2.60516196      -2.76566617       0.00000000
Si      -2.71590138      -2.70982521       0.00270889       0.00000000
Si       2.71519506      -2.71347417      -0.00226312       0.00000000
Si       2.71436427       2.71500543       0.00264031       0.00000000
Si      -0.00016290       2.71459818       2.71657013       0.00000000
Si       2.71433007      -0.00013032       2.71694731       0.00000000
