10
Lattice="16.28999089631971 0.0 0.0 0.0 16.28999089631971 0.0 0.0 0.0 34.28971787722196" Properties=species:S:1:pos:R:3:initial_magmoms:R:1 pbc="T T T"
Si      -1.76373459       0.17286948       1.50161616       0.00000000
Si      -0.81709011       0.58927446      -2.11080763       0.00000000
Si       1.22669469       2.10566169       0.31059644       0.00000000
Si       0.88800747      -2.32210692       0.27562091       0.00000000
Si       1.33673852      -1.96089246       2.64939653       0.00000000
Si      -0.52463574      -0.58435488       3.54199268       0.00000000
Si       0.89075646       1.62551394      -3.35401634       0.00000000
Si       2.07084574       1.84171482       2.69963100       0.00000000
Si       3.02553260      -0.31930029       2.43957763       0.00000000
Si      -3.13474986       2.18408175       0.82381093       0.00000000
