10
Lattice="16.28999089631971 0.0 0.0 0.0 16.28999089631971 0.0 0.0 0.0 34.28971787722196" Properties=species:S:1:pos:R:3:initial_magmoms:R:1 pbc="T T T"
Si      -1.70225613      -1.01419911       1.23957399       0.00000000
Si       1.95604523       1.20643740       0.48009061       0.00000000
Si      -1.11465954       1.52052489      -1.41654333       0.00000000
Si       1.02006907      -1.96100649      -0.83577805       0.00000000
Si       0.58704666      -1.16936136      -2.98145835       0.00000000
Si       2.58014771       0.23408730       2.46587786       0.00000000
Si       3.50517536       0.28193103      -0.95373475       0.00000000
Si      -2.01060954      -3.04704450       0.03693005       0.00000000
Si       2.22939143       0.55565190      -2.86329591       0.00000000
Si       0.15947910      -3.65335830       0.52655320       0.00000000
