10
Lattice="16.28999089631971 0.0 0.0 0.0 16.28999089631971 0.0 0.0 0.0 34.28971787722196" Properties=species:S:1:pos:R:3:initial_magmoms:R:1 pbc="T T T"
Si      -0.17339076      -2.31876747       0.07224848       0.00000000
Si       1.15716015       0.45998073      -1.97546604       0.00000000
Si      -2.28864726       0.69957405      -0.18310720       0.00000000
Si       1.97631909       0.22240737       1.48536283       0.00000000
Si       1.26037359      -2.13288228       1.95088030       0.00000000
Si      -0.58192767      -1.34732961       3.19182588       0.00000000
Si      -2.00956698      -2.59110369       1.70512575       0.00000000
Si      -3.47464071      -1.18895823       0.59965892       0.00000000
Si       2.54053857       2.30306391      -1.56272048       0.00000000
Si       2.70146422      -1.16877492      -2.58074848       0.00000000
