10
Lattice="16.28999089631971 0.0 0.0 0.0 16.28999089631971 0.0 0.0 0.0 34.28971787722196" Properties=species:S:1:pos:R:3:initial_magmoms:R:1 pbc="T T T"
Si       1.36115397       1.34711784       1.36261243       0.00000000
Si       1.31554686      -1.28904399      -1.46432265       0.00000000
Si      -1.35321030      -1.36788759       1.35997212       0.00000000
Si      -1.46671902       1.23727437      -1.40569405       0.00000000
Si      -0.55337130      -2.31244695      -2.67373882       0.00000000
Si      -2.16549486      -0.49691016      -2.90345746       0.00000000
Si       2.72788172       2.68837128      -0.01206313       0.00000000
Si      -2.71823085       2.70178124      -0.00985830       0.00000000
Si       0.00577686       2.70416917       2.71993738       0.00000000
Si      -2.71120986      -0.00935046       2.71901156       0.00000000
