10
Lattice="16.28999089631971 0.0 0.0 0.0 16.28999089631971 0.0 0.0 0.0 34.28971787722196" Properties=species:S:1:pos:R:3:initial_magmoms:R:1 pbc="T T T"
Si       1.34558658       1.30700439       1.53847763       0.00000000
Si      -1.68037866      -1.13676507       1.40515913       0.00000000
Si      -1.18874646       1.52163328      -1.57736219       0.00000000
Si       1.52860473      -1.18604232      -1.58308858       0.00000000
Si      -2.62304838      -2.70578529      -0.09662848       0.00000000
Si      -2.76252336       2.68601642      -0.08668446       0.00000000
Si      -3.57646950       0.42666998       1.41328580       0.00000000
Si       2.83564917       2.66860241      -0.01899651       0.00000000
Si      -2.53552221       0.17405057      -2.97391460       0.00000000
Si       0.17725149      -2.54112597      -2.96942265       0.00000000
