10
Lattice="16.28999089631971 0.0 0.0 0.0 16.28999089631971 0.0 0.0 0.0 34.28971787722196" Properties=species:S:1:pos:R:3:initial_magmoms:R:1 pbc="T T T"
Si      -0.54933138       1.86937524       1.33712830       0.00000000
Si      -1.13270886      -2.12270103       0.32839281       0.00000000
Si       2.36420028      -0.55649898       0.09470825       0.00000000
Si      -1.33037172       0.81886572      -1.91864795       0.00000000
Si       2.27377449      -1.23554763      -2.24755510       0.00000000
Si      -2.90543553       1.64704932       1.09672295       0.00000000
Si       0.55620576       3.66800301       0.08428417       0.00000000
Si       0.23268636      -2.17383534      -3.05034643       0.00000000
Si      -1.01144610      -2.61794961       2.61287796       0.00000000
Si      -3.51290918       1.18960983      -1.12069148       0.00000000
