10
Lattice="16.28999089631971 0.0 0.0 0.0 16.28999089631971 0.0 0.0 0.0 34.28971787722196" Properties=species:S:1:pos:R:3:initial_magmoms:R:1 pbc="T T T"
Si       1.55033626       1.75842405      -0.20560126       0.00000000
Si       1.43858523      -1.91383065      -0.03644999       0.00000000
Si      -1.77875397       0.37781397      -1.64556448       0.00000000
Si      -1.07698077       0.47288241       2.37785610       0.00000000
Si       1.89173719       2.68918482       1.86076687       0.00000000
Si       0.05520681      -3.75691383      -0.44919556       0.00000000
Si       0.58091769       3.59313484      -1.25569017       0.00000000
Si      -0.28688319       2.74323504       2.82204536       0.00000000
Si      -2.67449220      -1.76099787      -2.31668321       0.00000000
Si      -3.47613939       1.90333989      -0.75286547       0.00000000
