10
Lattice="16.28999089631971 0.0 0.0 0.0 16.28999089631971 0.0 0.0 0.0 34.28971787722196" Properties=species:S:1:pos:R:3:initial_magmoms:R:1 pbc="T T T"
Si      -1.08801759       1.83801699      -0.99628831       0.00000000
Si       1.20322045       1.22808681       1.63173341       0.00000000
Si      -1.35432651      -1.41910335       1.42432508       0.00000000
Si       1.30746668       0.07271856      -2.16776289       0.00000000
Si       2.43686867      -1.99332585      -1.61580099       0.00000000
Si       2.42953817       2.73217509       0.36000353       0.00000000
Si       3.09975764       1.54688211      -1.50418789       0.00000000
Si      -2.93031885       2.62356966       0.24465727       0.00000000
Si      -0.09638013       2.54914065       3.03631305       0.00000000
Si      -3.11734434      -2.47624290       0.27555233       0.00000000
