10
Lattice="16.28999089631971 0.0 0.0 0.0 16.28999089631971 0.0 0.0 0.0 34.28971787722196" Properties=species:S:1:pos:R:3:initial_magmoms:R:1 pbc="T T T"
Si       1.35637056       1.35617508       1.35831935       0.00000000
Si       1.35728280      -1.35741312      -1.35711921       0.00000000
Si      -1.35773729       1.35754344      -1.35718779       0.00000000
Si      -1.35966114      -1.35746199       1.35732495       0.00000000
Si       2.71098180       0.00087966       2.71447845       0.00000000
Si      -2.71512150       0.00094482       2.71279826       0.00000000
Si      -0.00089595       2.71570590      -2.71392982       0.00000000
Si       2.71435383       2.71536381       0.00024003       0.00000000
Si      -2.71508446       2.71482624      -0.00010287       0.00000000
Si      -2.71504334      -2.71521720       0.00000000       0.00000000
