10
Lattice="16.28999089631971 0.0 0.0 0.0 16.28999089631971 0.0 0.0 0.0 34.28971787722196" Properties=species:S:1:pos:R:3:initial_magmoms:R:1 pbc="T T T"
Si      -1.34889441       1.30407966       1.39158040       0.00000000
Si      -1.35767254      -1.32693453      -1.36215980       0.00000000
Si       1.36144001       1.38764736      -1.35948520       0.00000000
Si       1.21118105      -1.48315563       1.47709900       0.00000000
Si       2.04619016       0.24060330       2.91253597       0.00000000
Si       0.34093667       2.08402857       2.99047655       0.00000000
Si      -2.72049909      -2.66390370      -0.01220715       0.00000000
Si       2.70575597      -2.68889256       0.02088245       0.00000000
Si      -0.00221218      -2.68534134      -2.71763311       0.00000000
Si       2.71381952       0.02829573      -2.71663871       0.00000000
