10
Lattice="16.28999089631971 0.0 0.0 0.0 16.28999089631971 0.0 0.0 0.0 34.28971787722196" Properties=species:S:1:pos:R:3:initial_magmoms:R:1 pbc="T T T"
Si       0.44873105       0.36121446       2.37377563       0.00000000
Si      -1.39959492      -2.01469833       0.14542277       0.00000000
Si      -0.88800747       2.32210692      -0.27562091       0.00000000
Si       1.41279443      -0.37035315      -2.05234363       0.00000000
Si       2.13752513       2.00280663       2.16395673       0.00000000
Si       2.35587629      -2.47798593      -1.33280779       0.00000000
Si      -1.94555427      -2.15954901      -2.27399249       0.00000000
Si      -2.65174206       2.49497640       1.22599526       0.00000000
Si      -0.11248944      -1.35879777      -3.59579327       0.00000000
Si      -1.41264321       1.73775204       3.26637177       0.00000000
