10
Lattice="16.28999089631971 0.0 0.0 0.0 16.28999089631971 0.0 0.0 0.0 34.28971787722196" Properties=species:S:1:pos:R:3:initial_magmoms:R:1 pbc="T T T"
Si      -1.36672774      -1.34125344       1.37467556       0.00000000
Si       1.34674317       1.37500536       1.37320110       0.00000000
Si      -1.35942331       1.35786339      -1.37876289       0.00000000
Si       1.47979989      -1.25957538      -1.49787858       0.00000000
Si       0.38942874       2.39002712      -2.61908783       0.00000000
Si       2.28037194       0.62779284      -2.84493174       0.00000000
Si      -0.09454716      -2.54236401      -2.82771829       0.00000000
Si       2.70594819      -2.69198766      -0.00067551       0.00000000
Si      -2.72788172      -2.68837128       0.01206313       0.00000000
Si      -0.96495444      -0.54001350      -3.67508627       0.00000000
