10
Lattice="16.28999089631971 0.0 0.0 0.0 16.28999089631971 0.0 0.0 0.0 34.28971787722196" Properties=species:S:1:pos:R:3:initial_magmoms:R:1 pbc="T T T"
Si      -1.35537711       1.35705133       1.35732495       0.00000000
Si      -1.36115397      -1.34711784      -1.36261243       0.00000000
Si       1.35680713      -1.35697329       1.35756498       0.00000000
Si       1.36672774       1.34125344      -1.37467556       0.00000000
Si       2.71161385      -2.71485882      -0.00281176       0.00000000
Si      -2.71376154       2.71328262      -0.00624073       0.00000000
Si      -2.71452717      -0.00040725       2.71392982       0.00000000
Si       0.00071676       2.71465749       2.71396411       0.00000000
Si       2.71475782      -0.00004887       2.71406698       0.00000000
Si      -2.71436427      -2.71500543      -0.00264031       0.00000000
