10
Lattice="16.28999089631971 0.0 0.0 0.0 16.28999089631971 0.0 0.0 0.0 34.28971787722196" Properties=species:S:1:pos:R:3:initial_magmoms:R:1 pbc="T T T"
Si      -1.15415532       2.16163413       0.12556902       0.00000000
Si      -1.22669469      -2.10566169      -0.31059644       0.00000000
Si       1.35389285       0.29980116      -2.06571663       0.00000000
Si       0.84415106      -0.26394687       2.38903456       0.00000000
Si      -2.04378480      -1.51638723      -2.42140407       0.00000000
Si       1.79883791      -2.42496198       2.12898119       0.00000000
Si      -0.33593823      -0.48014775      -3.66461278       0.00000000
Si      -2.99042928      -1.93279221       1.19101973       0.00000000
Si      -1.08821340      -0.41355423       3.71038958       0.00000000
Si       0.39289362       3.61413102       1.45666232       0.00000000
