10
Lattice="16.28999089631971 0.0 0.0 0.0 16.28999089631971 0.0 0.0 0.0 34.28971787722196" Properties=species:S:1:pos:R:3:initial_magmoms:R:1 pbc="T T T"
Si      -0.33565545      -1.14549651      -2.05224076       0.00000000
Si       0.77421483       2.14642646      -0.68281153       0.00000000
Si      -2.37269389       0.11004988       0.26269368       0.00000000
Si       0.34520139       0.00376299       2.51563227       0.00000000
Si       1.96983567      -1.22802165       1.08300705       0.00000000
Si      -0.59118039       2.19756077       2.69592771       0.00000000
Si      -2.87220393       1.73893211      -1.39854121       0.00000000
Si       1.39447287      -2.70749574      -2.11893430       0.00000000
Si      -0.29261727       0.56031966      -3.66824749       0.00000000
Si      -2.93486504      -2.26391904       0.49212631       0.00000000
