10
Lattice="10.86 0.0 0.0 0.0 10.86 0.0 0.0 0.0 10.86" Properties=species:S:1:pos:R:3:initial_magmoms:R:1 pbc="T T T"
Si      -0.54749604       1.26176910      -1.92661830       0.00000000
Si       1.60556412       1.10419050       1.41321180       0.00000000
Si      -1.10943588      -1.61080950       1.41321180       0.00000000
Si       1.60556412      -1.61080950      -1.30178820       0.00000000
Si      -2.46154932       2.20906518      -0.22542102       0.00000000
Si       0.24806412       2.46169050       2.77071180       0.00000000
Si      -2.46693588      -0.25330950       2.77071180       0.00000000
Si      -2.63524416      -0.10218174      -2.64590868       0.00000000
Si      -2.46693588      -2.96830950       0.05571180       0.00000000
Si       2.95230186       2.50966998       0.10021608       0.00000000
