10
Lattice="16.28999089631971 0.0 0.0 0.0 16.28999089631971 0.0 0.0 0.0 34.642051614445585" Properties=species:S:1:pos:R:3:initial_magmoms:R:1 pbc="T T T"
Si       0.81055782      -2.20671833       0.34503503       0.00000000
Si      -2.23997926      -0.30633345       0.76022025       0.00000000
Si      -0.47838843       0.03354111      -2.35715044       0.00000000
Si       1.04374917       1.36417347       1.81313135       0.00000000
Si       0.82857456      -2.04935042      -2.50309748       0.00000000
Si      -1.35670613      -1.01516022       2.88907944       0.00000000
Si       0.39866517      -2.69151688       2.67166580       0.00000000
Si      -0.31732920       0.90160263       3.76410351       0.00000000
Si       3.37781295       0.92664036       1.93811994       0.00000000
Si       0.08860131       1.98643518      -3.53886076       0.00000000
