10
Lattice="16.28999089631971 0.0 0.0 0.0 16.28999089631971 0.0 0.0 0.0 34.642051614445585" Properties=species:S:1:pos:R:3:initial_magmoms:R:1 pbc="T T T"
Si       1.33770222       0.38260323      -1.90908989       0.00000000
Si      -2.03800166       0.91333210      -0.78090156       0.00000000
Si      -0.57606653      -2.28020904       0.39613208       0.00000000
Si       0.97432119       1.09957078       1.88359333       0.00000000
Si       1.34711784      -1.71559764      -2.95825965       0.00000000
Si       1.48201533      -3.28583961       0.78918102       0.00000000
Si      -3.63938867       0.67515021       0.97455074       0.00000000
Si      -1.88258643       3.27333608      -0.86168687       0.00000000
Si       1.57884309       3.33944090       1.20201058       0.00000000
Si      -1.97289004      -2.47722030       2.26988706       0.00000000
