10
Lattice="16.28999089631971 0.0 0.0 0.0 16.28999089631971 0.0 0.0 0.0 34.642051614445585" Properties=species:S:1:pos:R:3:initial_magmoms:R:1 pbc="T T T"
Si       1.36927224      -1.27598495       1.29072892       0.00000000
Si      -1.33695288      -1.37138409      -1.32048646       0.00000000
Si       1.37824803       1.34041939      -1.32367353       0.00000000
Si      -1.25672463       1.36612501       1.41630643       0.00000000
Si      -0.26731890      -2.45510892       2.50205822       0.00000000
Si       2.27406771       0.44626129       2.75581139       0.00000000
Si       0.55037394       2.29934653       2.75407928       0.00000000
Si      -2.66642865       2.70338740       0.03575062       0.00000000
Si      -2.69146638      -0.01903812      -2.67987597       0.00000000
Si       0.02407662       2.69602432      -2.67984133       0.00000000
