10
Lattice="16.28999089631971 0.0 0.0 0.0 16.28999089631971 0.0 0.0 0.0 34.642051614445585" Properties=species:S:1:pos:R:3:initial_magmoms:R:1 pbc="T T T"
Si       2.23997926       0.30633345      -0.76022025       0.00000000
Si       0.88327312      -0.70882677       2.12885919       0.00000000
Si      -1.90824385      -1.25827218      -0.88718344       0.00000000
Si      -1.46772967       1.96204905      -0.35518515       0.00000000
Si       1.76159083       0.33987456      -3.11737068       0.00000000
Si       3.05053708      -1.90038488      -0.41518522       0.00000000
Si      -1.03348714      -1.06212429       3.35972661       0.00000000
Si      -3.57588373       0.69164082      -0.80577457       0.00000000
Si       1.92265006       1.20793608       3.00388326       0.00000000
Si      -0.88547620       3.45053151       1.40179140       0.00000000
