10
Lattice="16.28999089631971 0.0 0.0 0.0 16.28999089631971 0.0 0.0 0.0 34.642051614445585" Properties=species:S:1:pos:R:3:initial_magmoms:R:1 pbc="T T T"
Si      -1.34912151      -1.36101321       1.35450498       0.00000000
Si       1.35643572      -1.35475785      -1.36157196       0.00000000
Si      -1.35928647       1.36000323      -1.36216087       0.00000000
Si       1.38613239       1.34975682       1.36943571       0.00000000
Si      -0.02088378       2.71060713       2.61592671       0.00000000
Si       2.71116099      -2.71037907       0.00225173       0.00000000
Si      -2.71148679      -2.71375110      -0.00398384       0.00000000
Si       2.71293660       2.71547784      -0.00446883       0.00000000
Si      -2.71150308       2.71728603      -0.00183603       0.00000000
Si      -0.00122175      -2.71192662      -2.71843259       0.00000000
