10
Lattice="16.28999089631971 0.0 0.0 0.0 16.28999089631971 0.0 0.0 0.0 34.642051614445585" Properties=species:S:1:pos:R:3:initial_magmoms:R:1 pbc="T T T"
Si       0.68680269      -2.07153414       0.76319947       0.00000000
Si      -2.35053297       0.40185801      -0.55562418       0.00000000
Si      -0.07817571       1.42293150       2.00549877       0.00000000
Si       0.99957069       0.08110791      -2.31273930       0.00000000
Si      -0.70379316       1.75558959      -2.61467959       0.00000000
Si      -1.39258323      -2.86282089       1.57943594       0.00000000
Si       0.89572194      -3.22216200      -1.28941252       0.00000000
Si      -2.08593450       2.81729034      -0.97233365       0.00000000
Si      -0.80166348       3.46717989       1.06922752       0.00000000
Si      -1.75884759       0.48343833       3.38608923       0.00000000
