10
Lattice="16.28999089631971 0.0 0.0 0.0 16.28999089631971 0.0 0.0 0.0 34.642051614445585" Properties=species:S:1:pos:R:3:initial_magmoms:R:1 pbc="T T T"
Si      -0.68680269       2.07153414      -0.76319947       0.00000000
Si       0.20891925      -1.15062786      -2.05261199       0.00000000
Si      -2.07938592      -0.79128675       0.81623648       0.00000000
Si       2.02766517      -0.22832064       1.41374292       0.00000000
Si       1.17222840      -2.16686322       2.47299352       0.00000000
Si      -2.05584687       0.19442115       2.99071927       0.00000000
Si       1.45461555      -3.09663126      -1.36780753       0.00000000
Si       0.34352352      -3.61820448       0.75869600       0.00000000
Si       0.31276800       2.15264205      -3.07593877       0.00000000
Si      -0.76497840       3.49446564       1.24229931       0.00000000
