10
Lattice="16.28999089631971 0.0 0.0 0.0 16.28999089631971 0.0 0.0 0.0 34.642051614445585" Properties=species:S:1:pos:R:3:initial_magmoms:R:1 pbc="T T T"
Si      -1.78910368      -0.02183023       1.51617952       0.00000000
Si       0.26365039      -2.32742953      -0.27776013       0.00000000
Si       1.39333420       1.56052824       1.08949313       0.00000000
Si      -1.00048849       0.95602263      -1.92589129       0.00000000
Si       0.91627178       1.30932015      -3.15675872       0.00000000
Si      -0.22027664       3.20065431       1.67175706       0.00000000
Si      -1.26002077      -2.72989027      -2.03283137       0.00000000
Si      -3.60587851       0.81622185       0.10202090       0.00000000
Si      -2.22021853      -0.77563206      -2.89749746       0.00000000
Si      -1.43829853       1.73865939       3.03422971       0.00000000
