10
Lattice="16.28999089631971 0.0 0.0 0.0 16.28999089631971 0.0 0.0 0.0 34.642051614445585" Properties=species:S:1:pos:R:3:initial_magmoms:R:1 pbc="T T T"
Si      -1.35705474      -1.35684297      -1.35727634       0.00000000
Si       1.35702216      -1.35791811       1.35692992       0.00000000
Si       1.35855342       1.35638685      -1.35738027       0.00000000
Si      -1.35782037       1.35755102       1.35758812       0.00000000
Si       2.71437012      -2.71438641      -0.00024249       0.00000000
Si       2.71471221       0.00149868      -2.71410233       0.00000000
Si      -0.00158013      -2.71531494       2.71361735       0.00000000
Si       2.71526607      -0.00014661       2.71413698       0.00000000
Si       2.71520091       2.71450600       0.00017321       0.00000000
Si       0.00087966       2.71594929       2.71382520       0.00000000
