10
Lattice="16.28999089631971 0.0 0.0 0.0 16.28999089631971 0.0 0.0 0.0 34.642051614445585" Properties=species:S:1:pos:R:3:initial_magmoms:R:1 pbc="T T T"
Si      -1.36449927       1.36901160      -1.25941249       0.00000000
Si       1.08820458       1.64458953       1.20405446       0.00000000
Si      -0.97350669      -1.58387670       1.38408930       0.00000000
Si       1.40701617      -1.36085031      -1.24649100       0.00000000
Si       0.72985716      -3.25835838       1.68602959       0.00000000
Si      -2.69061930       0.00667890      -2.61776274       0.00000000
Si       0.02088378      -2.71060713      -2.61592671       0.00000000
Si       0.01857060       2.72831436      -2.61849022       0.00000000
Si       2.73382038       0.00487071      -2.62039553       0.00000000
Si      -2.97430965       2.44837071       0.16780619       0.00000000
