10
Lattice="16.28999089631971 0.0 0.0 0.0 16.28999089631971 0.0 0.0 0.0 34.642051614445585" Properties=species:S:1:pos:R:3:initial_magmoms:R:1 pbc="T T T"
Si       0.22806000       2.28055113       0.49631695       0.00000000
Si      -2.34395181      -0.19127718      -0.25139751       0.00000000
Si       1.03140135       0.07693767      -2.16786616       0.00000000
Si       0.72728334      -1.68021576       1.56426271       0.00000000
Si       3.13281135      -0.89474454      -1.64917043       0.00000000
Si      -2.53949697      -1.51479081      -2.14323565       0.00000000
Si      -0.85882509      -0.57529764      -3.52382610       0.00000000
Si      -1.85914512       3.03643971       1.12070564       0.00000000
Si      -3.03710760       2.07619308      -0.67032407       0.00000000
Si       2.73958704      -0.84203010       2.45536071       0.00000000
