10
Lattice="16.28999089631971 0.0 0.0 0.0 16.28999089631971 0.0 0.0 0.0 34.642051614445585" Properties=species:S:1:pos:R:3:initial_magmoms:R:1 pbc="T T T"
Si      -1.35669636      -1.35745365      -1.35772669       0.00000000
Si      -1.35803214       1.36007328       1.35498996       0.00000000
Si       1.35856971       1.35715737      -1.35786526       0.00000000
Si       1.35808101      -1.35826250       1.35817703       0.00000000
Si      -2.73628017       0.01965389       2.67866350       0.00000000
Si       0.01523115       2.70458472       2.71441411       0.00000000
Si      -2.71220355       2.71567821      -0.00117783       0.00000000
Si      -2.71342530      -0.00082753      -2.71486446       0.00000000
Si      -2.71336014      -2.71548014      -0.00090069       0.00000000
Si       0.00182448      -2.70945284       2.71999149       0.00000000
