10
Lattice="16.28999089631971 0.0 0.0 0.0 16.28999089631971 0.0 0.0 0.0 34.642051614445585" Properties=species:S:1:pos:R:3:initial_magmoms:R:1 pbc="T T T"
Si       1.66959468      -0.35687710       1.54600634       0.00000000
Si       0.07615575       1.57209414      -1.73639917       0.00000000
Si      -2.17377018       0.44551521       0.85974692       0.00000000
Si      -0.92693358      -2.21020669      -0.46094740       0.00000000
Si      -0.82863972      -0.15015210      -3.20148163       0.00000000
Si      -2.49719184      -1.89126478       1.38069438       0.00000000
Si      -2.46523086      -1.32927607      -1.99015234       0.00000000
Si       3.55576491      -1.18651051       0.49191741       0.00000000
Si       2.01082131       1.53865077       2.84165444       0.00000000
Si      -2.06524620       2.03398080       2.61752024       0.00000000
