10
Lattice="16.28999089631971 0.0 0.0 0.0 16.28999089631971 0.0 0.0 0.0 34.642051614445585" Properties=species:S:1:pos:R:3:initial_magmoms:R:1 pbc="T T T"
Si       1.86134427       0.55007909       1.54324333       0.00000000
Si      -1.93844484       1.65329979       0.06360284       0.00000000
Si       0.98189604       0.67497941      -2.26022192       0.00000000
Si      -0.78537348      -2.10863854       1.36731357       0.00000000
Si       0.60147567       1.92517989       2.94935460       0.00000000
Si      -0.81422307       3.27438285       1.50673405       0.00000000
Si      -2.11085820      -0.82620829       2.92609938       0.00000000
Si      -3.54835296       0.41443226       1.39178820       0.00000000
Si      -2.43217845      -3.12674725      -0.14248284       0.00000000
Si      -0.38242404       2.62092579      -3.00329434       0.00000000
