10
Lattice="16.28999089631971 0.0 0.0 0.0 16.28999089631971 0.0 0.0 0.0 34.642051614445585" Properties=species:S:1:pos:R:3:initial_magmoms:R:1 pbc="T T T"
Si      -1.36432008       1.94594638      -0.74307242       0.00000000
Si       2.20757193       1.13604016       0.51363799       0.00000000
Si      -0.98189604      -0.67497941       2.26022192       0.00000000
Si      -0.35784243      -1.26102193      -2.19939044       0.00000000
Si      -0.50761269      -3.41563737      -1.25262264       0.00000000
Si      -3.51567522       1.47685954      -0.05927258       0.00000000
Si      -2.92034088       0.97832038       2.32382476       0.00000000
Si       0.94105701       1.29263593      -3.51416096       0.00000000
Si       1.64455695      -0.98827032      -3.36457650       0.00000000
Si       1.51845606       3.58872772       0.13427267       0.00000000
