10
Lattice="16.28999089631971 0.0 0.0 0.0 16.28999089631971 0.0 0.0 0.0 34.642051614445585" Properties=species:S:1:pos:R:3:initial_magmoms:R:1 pbc="T T T"
Si       1.35609363      -1.35842310      -1.35679135       0.00000000
Si       1.35698958       1.35790182       1.35783061       0.00000000
Si      -1.35798327      -1.35799956       1.35762276       0.00000000
Si      -1.35711990       1.35987291      -1.35956272       0.00000000
Si      -0.00869886      -2.68159464      -2.72167163       0.00000000
Si       2.69241120       0.01114236      -2.73208503       0.00000000
Si      -0.00472410       2.72103273      -2.70426399       0.00000000
Si       2.71324611       2.71595025       0.00034642       0.00000000
Si      -2.71458189      -0.00070047       2.71486446       0.00000000
Si       0.00034209       2.71476108       2.71496839       0.00000000
