10
Lattice="16.28999089631971 0.0 0.0 0.0 16.28999089631971 0.0 0.0 0.0 34.642051614445585" Properties=species:S:1:pos:R:3:initial_magmoms:R:1 pbc="T T T"
Si      -1.34340372      -1.36337526       1.35592530       0.00000000
Si       1.35809730      -1.35065277      -1.35935487       0.00000000
Si      -1.35581670       1.36203948      -1.35852346       0.00000000
Si       1.36599795       1.37200896       1.37102924       0.00000000
Si      -2.57782734       0.04746906       2.73648111       0.00000000
Si      -2.71666701      -2.70788670      -0.00349885       0.00000000
Si       2.71441899      -2.71205694       0.00495382       0.00000000
Si      -0.00006516      -2.71080261      -2.71635407       0.00000000
Si      -2.71456560       0.00360009      -2.71645800       0.00000000
Si       2.71526607       0.00400734      -2.71645800       0.00000000
