10
Lattice="16.28999089631971 0.0 0.0 0.0 16.28999089631971 0.0 0.0 0.0 34.642051614445585" Properties=species:S:1:pos:R:3:initial_magmoms:R:1 pbc="T T T"
Si       0.54240813      -0.38050182       2.20600708       0.00000000
Si      -2.01561057      -1.00168839      -0.58136324       0.00000000
Si       0.17703972       2.32526718      -0.42786422       0.00000000
Si       1.64605563      -0.57777372      -1.62055608       0.00000000
Si       1.29143862       1.68124203      -2.41455235       0.00000000
Si       1.80649584       1.41672501       2.98770541       0.00000000
Si       3.48793335      -1.64673981      -0.32061237       0.00000000
Si      -1.17977067      -0.11518659       3.68633206       0.00000000
Si      -1.71870903      -3.14696736      -1.62980551       0.00000000
Si      -3.00078090      -2.31860457       1.10546313       0.00000000
