10
Lattice="16.28999089631971 0.0 0.0 0.0 16.28999089631971 0.0 0.0 0.0 34.642051614445585" Properties=species:S:1:pos:R:3:initial_magmoms:R:1 pbc="T T T"
Si       1.24196589      -0.21941001      -1.95377816       0.00000000
Si      -0.29950794       2.31130665       0.13285234       0.00000000
Si      -1.08089037      -1.91809863       1.27964346       0.00000000
Si       2.91713175      -1.03926942      -0.51169803       0.00000000
Si       0.90670140      -2.30845590       2.60179274       0.00000000
Si      -0.12820230      -1.53758052      -3.32321387       0.00000000
Si      -0.44276220       2.70936909       2.54231230       0.00000000
Si       2.96639271      -1.29572289       1.94882434       0.00000000
Si      -1.66990419       2.96476371      -1.80000201       0.00000000
Si       1.73195280       3.51572409      -0.72588996       0.00000000
