10
Lattice="16.28999089631971 0.0 0.0 0.0 16.28999089631971 0.0 0.0 0.0 34.642051614445585" Properties=species:S:1:pos:R:3:initial_magmoms:R:1 pbc="T T T"
Si       0.96537798       2.15026371      -0.03336031       0.00000000
Si      -2.12775093       0.77823846       0.67687142       0.00000000
Si      -0.52124742      -0.94819203      -2.12092615       0.00000000
Si       0.96964596      -1.52448336       1.56932046       0.00000000
Si       1.24574517       0.35940627       3.14480720       0.00000000
Si      -2.21812785      -2.53962729      -1.66673396       0.00000000
Si       0.03743442       3.30905286      -1.85729999       0.00000000
Si      -0.63833994      -3.28906503       1.97290058       0.00000000
Si       1.41154479      -1.68695982      -3.30523463       0.00000000
Si       0.44440749       3.56283477       1.77284262       0.00000000
