10
Lattice="16.28999089631971 0.0 0.0 0.0 16.28999089631971 0.0 0.0 0.0 34.642051614445585" Properties=species:S:1:pos:R:3:initial_magmoms:R:1 pbc="T T T"
Si       0.02057427      -0.90357372       2.24196555       0.00000000
Si       1.20741480       2.09883618      -0.02816400       0.00000000
Si      -0.27609921      -1.88388963      -1.57548675       0.00000000
Si      -1.24574517      -0.35940627      -3.14480720       0.00000000
Si      -0.80133768       3.20342850      -1.37196458       0.00000000
Si      -0.28036719       1.79085744      -3.17816752       0.00000000
Si       2.38754385       1.99761012       2.29285475       0.00000000
Si       0.72205425       0.96669747       3.71733121       0.00000000
Si       1.71403380      -2.79339291       2.27006027       0.00000000
Si       1.73413566      -2.99356443      -2.09768132       0.00000000
