10
Lattice="16.28999089631971 0.0 0.0 0.0 16.28999089631971 0.0 0.0 0.0 34.642051614445585" Properties=species:S:1:pos:R:3:initial_magmoms:R:1 pbc="T T T"
Si       0.49902786      -2.31321258      -0.17255216       0.00000000
Si       0.54240813       1.65478707      -1.64955149       0.00000000
Si       1.53531621       0.50872041       1.78049852       0.00000000
Si      -2.41245126      -0.05243751       0.21602795       0.00000000
Si       0.88363476       3.55031495      -0.35390340       0.00000000
Si      -1.03687479      -3.19818312       1.48915870       0.00000000
Si       2.42857836       0.82515366      -2.70364043       0.00000000
Si       0.64228212      -2.71127502      -2.58201212       0.00000000
Si       2.37004839       2.67492618       1.35616779       0.00000000
Si       2.89645974      -2.51616969       0.05168597       0.00000000
