10
Lattice="16.28999089631971 0.0 0.0 0.0 16.28999089631971 0.0 0.0 0.0 34.642051614445585" Properties=species:S:1:pos:R:3:initial_magmoms:R:1 pbc="T T T"
Si       1.37596743       1.13386545       1.53464374       0.00000000
Si      -1.67596407       0.16286742       1.64539445       0.00000000
Si      -1.31722569       0.44035128      -1.90649173       0.00000000
Si       1.17257049      -1.95668964      -0.66114392       0.00000000
Si       1.57224564      -0.71203590       3.08588104       0.00000000
Si      -2.12131638      -1.88270046      -2.11275062       0.00000000
Si      -0.74802051      -0.99592173       3.46933412       0.00000000
Si       2.69436600      -1.26281709      -2.26618036       0.00000000
Si      -2.71788876       2.26690011      -1.30583287       0.00000000
Si      -0.31729662      -3.39832206      -1.71187258       0.00000000
