10
Lattice="16.28999089631971 0.0 0.0 0.0 16.28999089631971 0.0 0.0 0.0 34.642051614445585" Properties=species:S:1:pos:R:3:initial_magmoms:R:1 pbc="T T T"
Si       0.52097049      -1.41257106      -1.80620294       0.00000000
Si       0.14977026       2.15461544      -0.94676780       0.00000000
Si      -2.25702837      -0.50389857       0.70870749       0.00000000
Si       2.00875248      -1.10459232       1.34380058       0.00000000
Si       0.80133768      -3.20342850       1.37196458       0.00000000
Si      -0.40697307      -0.25378191      -3.63014262       0.00000000
Si       0.50761269       3.41563737       1.25262264       0.00000000
Si       3.67865667      -0.26099838      -0.16112027       0.00000000
Si       2.84123664      -1.12868523      -2.18965602       0.00000000
Si      -0.93815739       2.03942396      -3.10358314       0.00000000
