10
Lattice="16.28999089631971 0.0 0.0 0.0 16.28999089631971 0.0 0.0 0.0 34.642051614445585" Properties=species:S:1:pos:R:3:initial_magmoms:R:1 pbc="T T T"
Si      -0.71026029       0.44937594      -2.19064856       0.00000000
Si       0.81340857       1.88748972       1.18711068       0.00000000
Si      -2.03838399      -0.81156454       1.09917871       0.00000000
Si       1.80887418      -1.70105881      -0.19945696       0.00000000
Si       2.14322164       0.53401878       2.53188469       0.00000000
Si      -0.60145938      -2.19086558       2.48991583       0.00000000
Si       1.17146277      -0.59185643      -3.29829413       0.00000000
Si       0.68854572      -3.50038610       0.97991992       0.00000000
Si       3.50288824      -0.70843581       1.09427686       0.00000000
Si       2.60240636       2.81049741      -0.08119201       0.00000000
