10
Lattice="16.28999089631971 0.0 0.0 0.0 16.28999089631971 0.0 0.0 0.0 34.642051614445585" Properties=species:S:1:pos:R:3:initial_magmoms:R:1 pbc="T T T"
Si       1.35764185       1.46952904      -1.13865023       0.00000000
Si      -0.28670400       0.56896897       2.22994475       0.00000000
Si      -1.56199923      -1.39995739      -1.08256472       0.00000000
Si       2.42248820      -0.13859532      -2.48487575       0.00000000
Si      -0.27331362       2.60885164      -2.46800506       0.00000000
Si      -0.65156742      -1.55108397       3.23331769       0.00000000
Si      -0.28509129      -2.83476855      -2.47434456       0.00000000
Si      -3.00302892      -0.12708318      -2.47309745       0.00000000
Si      -1.95434388       2.51888197       2.31135362       0.00000000
Si       1.62153985       1.82724115       3.11712819       0.00000000
