10
Lattice="16.28999089631971 0.0 0.0 0.0 16.28999089631971 0.0 0.0 0.0 34.642051614445585" Properties=species:S:1:pos:R:3:initial_magmoms:R:1 pbc="T T T"
Si      -1.64605563       0.57777372       1.62055608       0.00000000
Si      -0.85763592      -1.02268620      -1.97806225       0.00000000
Si      -0.35461701       2.25901575      -0.79399627       0.00000000
Si       1.84187772      -1.06896609       1.29994371       0.00000000
Si      -1.46901591       2.90304090       1.19269186       0.00000000
Si      -1.31947371      -3.14962263      -1.03482794       0.00000000
Si       0.97319718      -0.94268601      -3.53369909       0.00000000
Si      -3.66166620      -0.42391467       1.03919285       0.00000000
Si       1.70507430       3.27174876      -1.44696466       0.00000000
Si       3.08270331       0.60250194       2.41756621       0.00000000
