10
Lattice="16.28999089631971 0.0 0.0 0.0 16.28999089631971 0.0 0.0 0.0 34.642051614445585" Properties=species:S:1:pos:R:3:initial_magmoms:R:1 pbc="T T T"
Si      -1.24082559      -1.67146803      -1.11762249       0.00000000
Si       1.61925925       0.59585562      -1.63697642       0.00000000
Si       1.21310231      -1.05432138       1.81188424       0.00000000
Si      -1.26166050       1.96869537       0.67018551       0.00000000
Si       2.74746230       2.33403120      -0.44213675       0.00000000
Si       0.43289046      -3.29895306      -1.78576412       0.00000000
Si       2.31913629       0.57220254       3.07323668       0.00000000
Si      -2.92226310       1.39199679       2.19069528       0.00000000
Si      -0.00777033       3.30502923       2.14389385       0.00000000
Si      -3.08270331      -0.60250194      -2.41756621       0.00000000
