10
Lattice="16.28999089631971 0.0 0.0 0.0 16.28999089631971 0.0 0.0 0.0 34.642051614445585" Properties=species:S:1:pos:R:3:initial_magmoms:R:1 pbc="T T T"
Si      -1.31069340       1.32934545       1.49964832       0.00000000
Si       0.83414574       1.82241117      -1.33127196       0.00000000
Si      -1.65926682      -1.13912712      -1.33296943       0.00000000
Si       1.38504969      -1.36414089       1.47338271       0.00000000
Si      -3.35272635       0.75069207      -1.36106414       0.00000000
Si      -2.65124637       2.62096326       0.11430151       0.00000000
Si       2.66578587       2.67076179      -0.00119515       0.00000000
Si      -2.67978645      -0.01337409       2.85437154       0.00000000
Si       2.74654843      -2.78905977       0.20035242       0.00000000
Si       0.03412755       2.70140328       2.84907131       0.00000000
