10
Lattice="16.28999089631971 0.0 0.0 0.0 16.28999089631971 0.0 0.0 0.0 34.642051614445585" Properties=species:S:1:pos:R:3:initial_magmoms:R:1 pbc="T T T"
Si       0.93274911      -2.00047716       0.77580918       0.00000000
Si       0.57275640       1.64641401       1.59346598       0.00000000
Si      -2.39743188       0.20295711      -0.22423813       0.00000000
Si       1.50967575       0.40203720      -1.97255416       0.00000000
Si      -2.25417762      -0.19510533      -2.63369809       0.00000000
Si       2.72618037      -1.03257423       1.99008305       0.00000000
Si      -0.22271688       1.00931211      -3.49244039       0.00000000
Si      -1.36114353       3.02489010       1.72881255       0.00000000
Si      -2.89645974       2.51616969      -0.05168597       0.00000000
Si       1.70083890       0.67937445       3.42551190       0.00000000
