10
Lattice="16.28999089631971 0.0 0.0 0.0 16.28999089631971 0.0 0.0 0.0 34.642051614445585" Properties=species:S:1:pos:R:3:initial_magmoms:R:1 pbc="T T T"
Si       1.20148524       0.98272683      -1.74322365       0.00000000
Si      -1.89363105      -1.18763874      -0.69710239       0.00000000
Si      -1.04208759       1.52707347       1.46078685       0.00000000
Si       1.39642767      -1.51948233       1.19795746       0.00000000
Si      -0.77923215      -1.83166389      -2.68379052       0.00000000
Si      -0.26417493      -2.09618091       2.71846724       0.00000000
Si      -1.02664467       0.09225027       3.37011923       0.00000000
Si       2.99491650       1.95062976      -0.52894978       0.00000000
Si       1.28045916      -0.81893088      -3.33675892       0.00000000
Si       2.65031784      -0.18314847       2.67166580       0.00000000
