10
Lattice="16.28999089631971 0.0 0.0 0.0 16.28999089631971 0.0 0.0 0.0 34.642051614445585" Properties=species:S:1:pos:R:3:initial_magmoms:R:1 pbc="T T T"
Si      -1.16717850      -1.59171219       1.38647410       0.00000000
Si       1.65926682       1.13912712       1.33296943       0.00000000
Si      -1.69345953       1.88981919      -0.02809472       0.00000000
Si       0.71575002      -1.23119820      -2.14475990       0.00000000
Si      -2.38420440      -0.22470426       2.83758196       0.00000000
Si       0.34857342       2.46847257       2.83261775       0.00000000
Si       2.49341256       2.96153829       0.00169746       0.00000000
Si      -3.14662527      -2.39102991       0.10278302       0.00000000
Si      -1.71403380       2.79339291      -2.27006027       0.00000000
Si      -0.48930273      -3.28880439      -2.25512954       0.00000000
