10
Lattice="16.28999089631971 0.0 0.0 0.0 16.28999089631971 0.0 0.0 0.0 34.642051614445585" Properties=species:S:1:pos:R:3:initial_magmoms:R:1 pbc="T T T"
Si       1.35653346      -1.35666378       1.35672207       0.00000000
Si       1.35560493       1.35703845      -1.35779597       0.00000000
Si      -1.35684297      -1.35832536      -1.35724170       0.00000000
Si      -1.35832536       1.35785295       1.35717241       0.00000000
Si       0.00024435      -2.71376739       2.71375591       0.00000000
Si       0.00083079      -2.71531494      -2.71257808       0.00000000
Si       2.71443528      -0.00006516       2.71389448       0.00000000
Si       2.71402803      -2.71435383      -0.00024249       0.00000000
Si       2.71440270       2.71497285      -0.00045035       0.00000000
Si      -0.00127062       2.71516833       2.71489910       0.00000000
