10
Lattice="16.28999089631971 0.0 0.0 0.0 16.28999089631971 0.0 0.0 0.0 34.642051614445585" Properties=species:S:1:pos:R:3:initial_magmoms:R:1 pbc="T T T"
Si       1.35657731      -1.35690813       1.35755348       0.00000000
Si      -1.35769005       1.35816629       1.35741491       0.00000000
Si       1.35775266       1.35880571      -1.35679135       0.00000000
Si      -1.35879777      -1.35793440      -1.35734562       0.00000000
Si       0.00048870       2.71329728       2.71482982       0.00000000
Si       2.71480736      -2.71437012      -0.00013857       0.00000000
Si      -2.71440270      -2.71497285       0.00045035       0.00000000
Si       0.00003258      -2.71503801       2.71434483       0.00000000
Si      -2.71269225       0.00092853      -2.71725476       0.00000000
Si       2.71482691       2.71584666       0.00027714       0.00000000
