10
Lattice="16.28999089631971 0.0 0.0 0.0 16.28999089631971 0.0 0.0 0.0 34.642051614445585" Properties=species:S:1:pos:R:3:initial_magmoms:R:1 pbc="T T T"
Si      -1.98493650      -0.65511864       1.00548611       0.00000000
Si       0.81031347      -1.65172455      -1.50644510       0.00000000
Si      -0.33374952       1.81062765      -1.51773841       0.00000000
Si       1.08154052       0.78749185       2.06518706       0.00000000
Si       0.01705563       3.57111728       0.00031178       0.00000000
Si       1.71900455      -0.49497165      -3.31167806       0.00000000
Si      -2.47772529       1.05503229       2.63442557       0.00000000
Si       2.39162517      -2.95766127      -0.42041617       0.00000000
Si       1.45535416       1.83245788      -3.03391793       0.00000000
Si      -3.36090393      -1.78898409      -0.52915763       0.00000000
