10
Lattice="16.28999089631971 0.0 0.0 0.0 16.28999089631971 0.0 0.0 0.0 34.642051614445585" Properties=species:S:1:pos:R:3:initial_magmoms:R:1 pbc="T T T"
Si       0.83742003       0.86768685       2.02853575       0.00000000
Si      -2.32026615      -0.28388583       0.38345308       0.00000000
Si       1.21464756      -1.96744104      -0.53705603       0.00000000
Si      -0.19627821       1.84590135      -1.55123730       0.00000000
Si      -1.57224564       0.71203590      -3.08588104       0.00000000
Si       1.26881181       3.05032995       1.26391596       0.00000000
Si      -0.68906700       3.55605228       0.07770217       0.00000000
Si      -0.83248416       0.02409291       3.53345660       0.00000000
Si      -3.24820971       0.87490332      -1.44048660       0.00000000
Si      -2.84123664       1.12868523       2.18965602       0.00000000
