10
Lattice="16.28999089631971 0.0 0.0 0.0 16.28999089631971 0.0 0.0 0.0 34.642051614445585" Properties=species:S:1:pos:R:3:initial_magmoms:R:1 pbc="T T T"
Si      -1.35724533      -1.35637814       1.35845417       0.00000000
Si      -1.35753367       1.35767662      -1.35748419       0.00000000
Si       1.35782037      -1.35755102      -1.35758812       0.00000000
Si       1.35870003       1.35839827       1.35623708       0.00000000
Si       2.71321353       0.00605230       2.71562659       0.00000000
Si      -2.71460791       0.00063567      -2.71455268       0.00000000
Si       0.00076563      -2.71439399      -2.71486446       0.00000000
Si       0.00462636       2.70922209       2.72006077       0.00000000
Si      -0.00118917       2.71565664      -2.71444876       0.00000000
Si       2.71484253      -2.71546913      -0.00065820       0.00000000
