10
Lattice="16.28999089631971 0.0 0.0 0.0 16.28999089631971 0.0 0.0 0.0 34.642051614445585" Properties=species:S:1:pos:R:3:initial_magmoms:R:1 pbc="T T T"
Si      -1.27606412       1.78038297       0.90100562       0.00000000
Si       1.93733712       0.47473947      -1.29343100       0.00000000
Si       0.94644900      -0.47283354       2.13959823       0.00000000
Si      -1.12820305      -1.73817558      -1.19483967       0.00000000
Si       2.66753637      -1.92331143       1.47869680       0.00000000
Si      -2.74746230      -2.33403120       0.44213675       0.00000000
Si       1.54753371       2.83529079      -1.66126051       0.00000000
Si       0.34424028       3.16957788       1.84915911       0.00000000
Si       0.64156536      -3.36292389      -1.69947072       0.00000000
Si       3.79265409      -0.66906288      -0.18945749       0.00000000
