10
Lattice="16.28999089631971 0.0 0.0 0.0 16.28999089631971 0.0 0.0 0.0 34.642051614445585" Properties=species:S:1:pos:R:3:initial_magmoms:R:1 pbc="T T T"
Si      -1.37477500      -1.28899512       1.37577521       0.00000000
Si       1.72108737      -1.45047789      -0.66090143       0.00000000
Si      -0.94644900       0.47283354      -2.13959823       0.00000000
Si       0.31464135       2.08085202       1.18832696       0.00000000
Si      -2.22251312       2.25321651      -1.23859261       0.00000000
Si       2.84620509      -0.19622934      -2.32905572       0.00000000
Si       0.99088812       0.94757301      -3.43302923       0.00000000
Si       0.01418859      -1.84156821       3.20892968       0.00000000
Si      -0.60220872       3.64241142      -0.29043912       0.00000000
Si       3.18378276      -1.77934041       1.16120222       0.00000000
