10
Lattice="16.28999089631971 0.0 0.0 0.0 16.28999089631971 0.0 0.0 0.0 34.642051614445585" Properties=species:S:1:pos:R:3:initial_magmoms:R:1 pbc="T T T"
Si      -1.35707425      -1.35704095      -1.35706849       0.00000000
Si       1.35634450       1.35798001      -1.35696456       0.00000000
Si      -1.35793889       1.35724696       1.35682599       0.00000000
Si       1.35753367      -1.35767662       1.35748419       0.00000000
Si       0.00096600       2.71312882      -2.70939101       0.00000000
Si      -2.71432192       2.71404106       0.00000000       0.00000000
Si      -2.71433821      -0.00254939       2.71455268       0.00000000
Si       2.71449067       2.71472524      -0.00006928       0.00000000
Si       2.71623370       0.00072165       2.71372127       0.00000000
Si       0.00028833      -2.71405476       2.71593836       0.00000000
