10
Lattice="16.28999089631971 0.0 0.0 0.0 16.28999089631971 0.0 0.0 0.0 34.642051614445585" Properties=species:S:1:pos:R:3:initial_magmoms:R:1 pbc="T T T"
Si       0.49674726       1.70129502      -1.59772696       0.00000000
Si       0.61092387       1.59133752       1.75621443       0.00000000
Si      -1.93105244      -0.88005096      -1.23225311       0.00000000
Si       1.61883504      -1.89400572      -0.00879909       0.00000000
Si      -0.59880737      -1.14285753       3.01541907       0.00000000
Si      -1.27452797       1.10455974       3.09149306       0.00000000
Si       1.90293264       0.45732546      -2.94835202       0.00000000
Si       3.28580703      -0.68738913      -1.27503606       0.00000000
Si       2.25766368       2.94506910      -0.30284098       0.00000000
Si      -0.83532839      -2.23733376      -2.93307487       0.00000000
