10
Lattice="16.28999089631971 0.0 0.0 0.0 16.28999089631971 0.0 0.0 0.0 34.642051614445585" Properties=species:S:1:pos:R:3:initial_magmoms:R:1 pbc="T T T"
Si      -0.23151022      -1.28894625      -2.00771587       0.00000000
Si      -1.71254068      -0.45110268       1.64539445       0.00000000
Si       2.24562700      -0.72058815       0.59871891       0.00000000
Si      -0.32564687       2.33680050      -0.60620160       0.00000000
Si       2.44117216       0.60292548       2.49055705       0.00000000
Si      -0.57797083      -1.77549597       3.16098505       0.00000000
Si      -3.50597194      -1.41900561       0.43112057       0.00000000
Si       1.65394162      -0.80216847      -3.34299449       0.00000000
Si      -2.92904530       0.98350875      -2.31724277       0.00000000
Si       1.75715506       3.43771128      -0.23442289       0.00000000
