10
Lattice="16.28999089631971 0.0 0.0 0.0 16.28999089631971 0.0 0.0 0.0 34.642051614445585" Properties=species:S:1:pos:R:3:initial_magmoms:R:1 pbc="T T T"
Si       1.35407367      -1.35082381      -1.36382369       0.00000000
Si      -1.36229035       1.36331010      -1.36209159       0.00000000
Si      -1.36621461      -1.36950844       1.35481675       0.00000000
Si       1.37911140       1.37160171       1.35180289       0.00000000
Si      -2.43106096       0.23861592       2.70104227       0.00000000
Si       2.70858717      -2.70316979      -0.00443419       0.00000000
Si      -2.72168702      -2.70659069      -0.00498846       0.00000000
Si       2.70982521       2.71940373      -0.00523095       0.00000000
Si      -0.00462636      -2.70922209      -2.72006077       0.00000000
Si       2.71091664       0.00560376      -2.72078825       0.00000000
