10
Lattice="16.28999089631971 0.0 0.0 0.0 16.28999089631971 0.0 0.0 0.0 34.642051614445585" Properties=species:S:1:pos:R:3:initial_magmoms:R:1 pbc="T T T"
Si      -1.13456985       1.32439329      -1.51559061       0.00000000
Si       1.62030440       1.38919491       0.94815348       0.00000000
Si       1.27606412      -1.78038297      -0.90100562       0.00000000
Si      -1.47916851      -0.80938494       1.68502497       0.00000000
Si       2.22251312      -2.25321651       1.23859261       0.00000000
Si      -2.73305868      -2.14571880       0.21131663       0.00000000
Si       2.53715447      -0.17236449       2.42691957       0.00000000
Si       0.57797083       1.77549597      -3.16098505       0.00000000
Si      -2.15991132       3.03634197      -0.08016175       0.00000000
Si       3.01914299       2.37842145      -0.67042800       0.00000000
