10
Lattice="16.28999089631971 0.0 0.0 0.0 16.28999089631971 0.0 0.0 0.0 34.642051614445585" Properties=species:S:1:pos:R:3:initial_magmoms:R:1 pbc="T T T"
Si       1.32612003       1.36233270       1.35835024       0.00000000
Si       1.35221661      -1.35728280      -1.36032484       0.00000000
Si      -1.36126896       1.35920502      -1.35789990       0.00000000
Si      -1.36958012      -1.36308204       1.37123710       0.00000000
Si      -0.28369035       2.44169181       2.78556893       0.00000000
Si       2.69061930      -0.00667890       2.61776274       0.00000000
Si       2.71081890       0.00011403      -2.71701227       0.00000000
Si       2.71150308      -2.71728603       0.00183603       0.00000000
Si       2.70918990       2.72163546      -0.00072748       0.00000000
Si      -0.00369783      -2.71497285      -2.71683906       0.00000000
