10
Lattice="16.28999089631971 0.0 0.0 0.0 16.28999089631971 0.0 0.0 0.0 34.71893929493243" Properties=species:S:1:pos:R:3:initial_magmoms:R:1 pbc="T T T"
Si      -1.33822661      -1.33346030       1.37255154       0.00000000
Si       1.37760213       1.37720547       1.36682291       0.00000000
Si       1.42456946      -1.38551989      -1.32813210       0.00000000
Si      -1.45458608       1.32299235      -1.40597201       0.00000000
Si       2.32114988       0.47587977      -2.49366039       0.00000000
Si       0.34685564       2.02364154      -2.78471189       0.00000000
Si      -2.69399444      -2.69140841      -0.01959538       0.00000000
Si       2.74099205      -2.67967961       0.05831049       0.00000000
Si       0.01784402      -2.69521318       2.73072248       0.00000000
Si      -2.69733389       0.02008557       2.72881294       0.00000000
