10
Lattice="16.28999089631971 0.0 0.0 0.0 16.28999089631971 0.0 0.0 0.0 34.71893929493243" Properties=species:S:1:pos:R:3:initial_magmoms:R:1 pbc="T T T"
Si       1.11281877      -0.26230158      -2.06445872       0.00000000
Si       0.00850338       2.37420953      -0.05312001       0.00000000
Si      -2.26569139      -0.77027265      -0.33416998       0.00000000
Si       0.94534128      -1.09923291       1.94047732       0.00000000
Si      -1.53166725      -2.64844449      -1.56745683       0.00000000
Si      -0.52108452      -1.38261375      -3.29149616       0.00000000
Si       1.80639810       2.78769860       1.43708714       0.00000000
Si       0.12250080       0.34446834       3.64417134       0.00000000
Si      -3.32856991       0.59795703      -2.03519064       0.00000000
Si       0.03080439      -3.34474425       2.11789120       0.00000000
