10
Lattice="16.28999089631971 0.0 0.0 0.0 16.28999089631971 0.0 0.0 0.0 34.71893929493243" Properties=species:S:1:pos:R:3:initial_magmoms:R:1 pbc="T T T"
Si      -0.95884569      -1.57733368       1.39660830       0.00000000
Si       1.56302550      -0.69931897      -1.60939182       0.00000000
Si       1.67350428       0.97786915       1.33168385       0.00000000
Si      -1.61236791       1.25539048      -1.18873691       0.00000000
Si       2.02784436       1.59438538      -1.74062948       0.00000000
Si       0.00363267       2.93254372      -1.76291905       0.00000000
Si      -2.23515090      -0.17761543       2.66866929       0.00000000
Si       0.18267606      -2.06490967      -2.91985891       0.00000000
Si      -2.66128101      -2.50661302       0.19668950       0.00000000
Si       0.47770425       2.52244297       2.61675750       0.00000000
