10
Lattice="16.28999089631971 0.0 0.0 0.0 16.28999089631971 0.0 0.0 0.0 34.71893929493243" Properties=species:S:1:pos:R:3:initial_magmoms:R:1 pbc="T T T"
Si       1.35716877       1.35773077      -1.35685162       0.00000000
Si      -1.35744570      -1.35738603      -1.35716410       0.00000000
Si      -1.35694071       1.35693256       1.35851813       0.00000000
Si       1.35651717      -1.35941583       1.35976802       0.00000000
Si      -0.00332316      -2.70446484       2.72366759       0.00000000
Si      -0.00040725      -2.71420626      -2.71425875       0.00000000
Si       2.71591767      -2.71324515      -0.00055550       0.00000000
Si       2.71495656       0.00019874      -2.71422403       0.00000000
Si      -2.71527421       0.00051476      -2.71436291       0.00000000
Si      -2.71477900       2.71543711       0.00104157       0.00000000
