10
Lattice="16.28999089631971 0.0 0.0 0.0 16.28999089631971 0.0 0.0 0.0 34.71893929493243" Properties=species:S:1:pos:R:3:initial_magmoms:R:1 pbc="T T T"
Si       0.55118844      -0.17438445      -2.23395668       0.00000000
Si       1.82715156       0.99453708       1.08295376       0.00000000
Si      -1.98954657       1.27832517       0.27563381       0.00000000
Si      -0.56749473      -2.26991376       0.49057889       0.00000000
Si       0.95232969       0.36238734       3.23427932       0.00000000
Si      -1.32888933      -1.48558284      -2.81279116       0.00000000
Si      -2.36538945      -2.68340283      -0.99962826       0.00000000
Si      -1.32058143      -0.44013951       3.47272912       0.00000000
Si       2.85785244      -0.63271989      -2.35658404       0.00000000
Si       0.32550678       1.93020210      -3.23979963       0.00000000
