10
Lattice="16.28999089631971 0.0 0.0 0.0 16.28999089631971 0.0 0.0 0.0 34.71893929493243" Properties=species:S:1:pos:R:3:initial_magmoms:R:1 pbc="T T T"
Si      -1.79789472      -0.41348907      -1.49020715       0.00000000
Si       0.56749473       2.26991376      -0.49057889       0.00000000
Si      -1.62847872      -0.02845863       1.75566830       0.00000000
Si       1.98610938      -1.58240555      -0.06103593       0.00000000
Si      -0.76139460       0.78433092      -3.30337004       0.00000000
Si      -0.75308670       1.82977425       2.98215024       0.00000000
Si       1.11868317       2.09552931      -2.72453556       0.00000000
Si      -1.80639810      -2.78769860      -1.43708714       0.00000000
Si      -1.68389730      -2.44323026       2.20708420       0.00000000
Si      -1.42205184       3.54823893      -0.21494507       0.00000000
