10
Lattice="16.28999089631971 0.0 0.0 0.0 16.28999089631971 0.0 0.0 0.0 34.71893929493243" Properties=species:S:1:pos:R:3:initial_magmoms:R:1 pbc="T T T"
Si      -1.35777150       1.35363384      -1.36518417       0.00000000
Si       1.35959598      -1.36119240      -1.36396901       0.00000000
Si       1.35809730       1.36679616       1.38639746       0.00000000
Si      -1.35641943      -1.37902995       1.37671087       0.00000000
Si       2.65911444      -0.11106522       2.76234451       0.00000000
Si       2.71391400       2.71169856      -0.00204842       0.00000000
Si      -2.71528236       2.71358820      -0.00055550       0.00000000
Si      -2.71313208      -2.71878471      -0.00579807       0.00000000
Si       0.00115659       2.71176372      -2.72082064       0.00000000
Si      -2.71414206      -0.00281817      -2.72151502       0.00000000
