10
Lattice="16.28999089631971 0.0 0.0 0.0 16.28999089631971 0.0 0.0 0.0 34.71893929493243" Properties=species:S:1:pos:R:3:initial_magmoms:R:1 pbc="T T T"
Si       1.41064884      -1.26169308      -1.40556232       0.00000000
Si      -1.30101714       1.47786138      -1.37594705       0.00000000
Si      -1.52006877      -1.10913723       1.50572652       0.00000000
Si       1.75601313       1.20327714       1.21943399       0.00000000
Si      -2.67309126      -2.65867461       0.15533262       0.00000000
Si       2.84765490      -2.49254919       0.02406024       0.00000000
Si       0.05906754      -2.60949510      -2.77154503       0.00000000
Si      -2.65911444       0.11106522      -2.76234451       0.00000000
Si       0.68704704       0.35895015       3.75881334       0.00000000
Si       3.59904744      -0.48138579       1.27435938       0.00000000
