10
Lattice="16.28999089631971 0.0 0.0 0.0 16.28999089631971 0.0 0.0 0.0 34.71893929493243" Properties=species:S:1:pos:R:3:initial_magmoms:R:1 pbc="T T T"
Si      -0.29530512      -0.26502201       2.40762091       0.00000000
Si      -1.88594217      -1.37648871      -0.72600815       0.00000000
Si       1.93389993      -1.45420830      -0.50155008       0.00000000
Si      -0.33712155       2.21488614      -1.28165036       0.00000000
Si       0.57101337      -3.14094006      -1.83645932       0.00000000
Si       1.95789510       2.85270480      -1.42233158       0.00000000
Si       1.72890657       0.40389426       3.32645815       0.00000000
Si       1.96082730       0.77398677      -3.15029416       0.00000000
Si      -1.25314083      -1.96630074      -3.10734680       0.00000000
Si      -3.79477179       0.22561650      -1.01268259       0.00000000
