10
Lattice="16.28999089631971 0.0 0.0 0.0 16.28999089631971 0.0 0.0 0.0 34.71893929493243" Properties=species:S:1:pos:R:3:initial_magmoms:R:1 pbc="T T T"
Si      -1.48861278      -0.74371995       1.62512502       0.00000000
Si       0.24806412       2.34590661       0.07929810       0.00000000
Si      -1.10594439      -0.71433279      -1.99137531       0.00000000
Si       2.18678589      -0.95583204      -0.31747016       0.00000000
Si       2.40803667       0.23307732      -2.29964495       0.00000000
Si       1.66438188       2.46782097      -1.89134999       0.00000000
Si      -1.36884870      -3.01768992      -1.38164096       0.00000000
Si      -1.93549635      -2.93369868       0.92730867       0.00000000
Si       1.39843134       2.42377281       2.34346027       0.00000000
Si       0.61221078      -0.49946769      -3.56827570       0.00000000
