10
Lattice="16.28999089631971 0.0 0.0 0.0 16.28999089631971 0.0 0.0 0.0 34.71893929493243" Properties=species:S:1:pos:R:3:initial_magmoms:R:1 pbc="T T T"
Si       1.34441370       1.34983827       1.35407411       0.00000000
Si      -1.35392706       1.35633798      -1.35747657       0.00000000
Si       1.35922131      -1.35884664      -1.35640028       0.00000000
Si      -1.34079732      -1.36651923       1.39889628       0.00000000
Si      -0.02109555       2.65157217       2.76578169       0.00000000
Si      -2.71332756       2.71016730       0.00284695       0.00000000
Si      -2.71265967      -0.00198738      -2.71405044       0.00000000
Si       0.00229689       2.71240863      -2.71436291       0.00000000
Si       2.71303434       2.71614358       0.00333302       0.00000000
Si      -2.71265967      -2.71749780       0.00673548       0.00000000
