10
Lattice="16.28999089631971 0.0 0.0 0.0 16.28999089631971 0.0 0.0 0.0 34.71893929493243" Properties=species:S:1:pos:R:3:initial_magmoms:R:1 pbc="T T T"
Si       1.31642259      -1.29415972       1.38644259       0.00000000
Si       0.89658042       1.86139966      -1.16552829       0.00000000
Si      -0.70633440      -1.83993988      -1.33835170       0.00000000
Si      -1.42456946       1.38551989       1.32813210       0.00000000
Si       1.93920558       0.13884619      -2.47096361       0.00000000
Si       0.06442206      -1.08452304      -3.44906611       0.00000000
Si       2.59272780      -2.69387797       0.11438161       0.00000000
Si      -2.68641226      -2.63094970      -0.14342749       0.00000000
Si      -0.05291481      -2.66248714       2.70287093       0.00000000
Si       2.66290512       0.05053321       2.70269734       0.00000000
