10
Lattice="16.28999089631971 0.0 0.0 0.0 16.28999089631971 0.0 0.0 0.0 34.71893929493243" Properties=species:S:1:pos:R:3:initial_magmoms:R:1 pbc="T T T"
Si       1.58627133       1.03096152      -1.43368468       0.00000000
Si      -1.17341757      -1.63501101      -1.41885969       0.00000000
Si       1.14157062      -1.31659038       2.02734416       0.00000000
Si      -1.82203650       1.95578622       0.13838977       0.00000000
Si       0.34875261       0.24003315       3.66455137       0.00000000
Si       0.25515027       2.45817633      -2.81542980       0.00000000
Si      -2.46580101      -0.25549236      -2.83271984       0.00000000
Si      -2.87722125      -2.50077564       0.01218635       0.00000000
Si       0.92603763       2.35097347       3.00673126       0.00000000
Si       3.39061689       2.05150951      -0.27868908       0.00000000
