10
Lattice="16.28999089631971 0.0 0.0 0.0 16.28999089631971 0.0 0.0 0.0 34.71893929493243" Properties=species:S:1:pos:R:3:initial_magmoms:R:1 pbc="T T T"
Si       0.57728502       2.11094032      -0.65782011       0.00000000
Si       0.72801639      -0.38947761       2.23999778       0.00000000
Si       0.79281801      -1.55662353      -1.63720722       0.00000000
Si      -2.33437329       0.57599811      -0.26528756       0.00000000
Si       2.65719222       1.58852002      -1.66668361       0.00000000
Si       0.19683207       3.21404048       1.44264217       0.00000000
Si      -3.27287277      -1.54362411       0.16720651       0.00000000
Si       3.08783466      -0.91880487      -1.77788844       0.00000000
Si      -0.34875261      -0.24003315      -3.66455137       0.00000000
Si       0.38915181       1.69021197       3.35909397       0.00000000
