10
Lattice="16.28999089631971 0.0 0.0 0.0 16.28999089631971 0.0 0.0 0.0 34.71893929493243" Properties=species:S:1:pos:R:3:initial_magmoms:R:1 pbc="T T T"
Si      -1.63390329      -1.12031217      -1.22703744       0.00000000
Si       1.60295229      -1.69903071      -0.20140468       0.00000000
Si      -1.11281877       0.26230158       2.06445872       0.00000000
Si       0.29535399       2.02342067      -1.22217678       0.00000000
Si      -1.10431539       2.63651111       2.01133872       0.00000000
Si       1.61860698      -1.82780316      -2.59729058       0.00000000
Si      -2.64448602      -2.38614291       0.49700189       0.00000000
Si      -1.81739385       2.22907377      -2.34096051       0.00000000
Si      -3.37851016      -0.50797107       1.73028874       0.00000000
Si      -0.68890410      -1.92337659      -3.24705589       0.00000000
