10
Lattice="16.28999089631971 0.0 0.0 0.0 16.28999089631971 0.0 0.0 0.0 34.71893929493243" Properties=species:S:1:pos:R:3:initial_magmoms:R:1 pbc="T T T"
Si       1.24359652      -1.74728821       1.10253525       0.00000000
Si      -1.30905367      -1.25735668      -1.59589166       0.00000000
Si       1.33081969       0.66650535      -1.94037316       0.00000000
Si      -1.18867057       1.98977463       1.02754230       0.00000000
Si      -0.43312408       0.02078604      -3.40634648       0.00000000
Si       1.02301363       2.99923335      -1.99824967       0.00000000
Si       3.11838004      -0.52391898       2.08063776       0.00000000
Si      -0.61713592       3.74440311      -0.46915729       0.00000000
Si       1.49918662      -3.47779187      -0.62573979       0.00000000
Si      -3.61540816      -1.01912358      -1.09548730       0.00000000
