10
Lattice="16.28999089631971 0.0 0.0 0.0 16.28999089631971 0.0 0.0 0.0 34.71893929493243" Properties=species:S:1:pos:R:3:initial_magmoms:R:1 pbc="T T T"
Si       1.45764549       0.41559048      -1.81639176       0.00000000
Si      -0.29854683      -2.23117614      -0.77944062       0.00000000
Si      -2.00098215       1.49615505      -0.20636949       0.00000000
Si       0.61807518       0.89381601       2.28436861       0.00000000
Si      -0.62063271       2.86174575       1.10409761       0.00000000
Si       1.80957465       2.55725307      -1.06517765       0.00000000
Si      -3.43272654       0.12170259       1.27449825       0.00000000
Si      -2.12995008      -1.76288751       2.47973219       0.00000000
Si       1.98338895      -3.11586975      -0.82929705       0.00000000
Si      -0.03473028       1.18574910      -3.64125495       0.00000000
