10
Lattice="16.28999089631971 0.0 0.0 0.0 16.28999089631971 0.0 0.0 0.0 34.71893929493243" Properties=species:S:1:pos:R:3:initial_magmoms:R:1 pbc="T T T"
Si       1.65364677       1.05024888      -1.29135528       0.00000000
Si      -1.23303897       1.49242464       1.37426665       0.00000000
Si       1.49680665      -1.22981355       1.39526468       0.00000000
Si      -0.87710247      -1.93548006      -1.17461494       0.00000000
Si       0.29312226       0.94512951      -3.20850192       0.00000000
Si       3.45797604      -0.64679445      -1.31909619       0.00000000
Si      -2.56266135       0.12790908       2.75820948       0.00000000
Si       0.15022638      -2.58314440       2.75862611       0.00000000
Si       2.74315455      -2.61618703      -0.06046654       0.00000000
Si      -2.72184723      -2.77510413       0.10812872       0.00000000
