10
Lattice="16.28999089631971 0.0 0.0 0.0 16.28999089631971 0.0 0.0 0.0 34.71893929493243" Properties=species:S:1:pos:R:3:initial_magmoms:R:1 pbc="T T T"
Si      -0.31043853       2.02005774       1.09250147       0.00000000
Si      -1.51785333       0.42523416      -1.69928471       0.00000000
Si       1.93886838      -0.46255455      -1.29932231       0.00000000
Si      -0.87842196      -1.56075793       1.59033662       0.00000000
Si      -0.96951564      -1.55815805      -2.87542416       0.00000000
Si       1.54795725       2.04806025       2.48809946       0.00000000
Si      -2.63480976       1.92880116       1.52881463       0.00000000
Si      -0.03417642       3.55066614      -0.66070178       0.00000000
Si      -0.72394389       2.44995084      -2.63204426       0.00000000
Si      -3.48509889       1.35470898      -0.69826770       0.00000000
