10
Lattice="16.28999089631971 0.0 0.0 0.0 16.28999089631971 0.0 0.0 0.0 34.71893929493243" Properties=species:S:1:pos:R:3:initial_magmoms:R:1 pbc="T T T"
Si      -1.69984521      -0.29048654      -1.56551257       0.00000000
Si       2.28568248       0.25485379      -0.49353000       0.00000000
Si      -0.54833769       1.98339221       1.17613944       0.00000000
Si      -0.08050518      -2.39150625       0.39117851       0.00000000
Si       0.96951564       1.55815805       2.87542416       0.00000000
Si       2.90838402       1.09560350       1.57610185       0.00000000
Si      -1.26920277      -2.79781143      -1.67671739       0.00000000
Si       2.21193765      -3.03129600      -0.03294829       0.00000000
Si      -3.77975241       0.23193376      -0.55664906       0.00000000
Si       0.24557175       4.00810889       0.24337990       0.00000000
