10
Lattice="16.28999089631971 0.0 0.0 0.0 16.28999089631971 0.0 0.0 0.0 34.71893929493243" Properties=species:S:1:pos:R:3:initial_magmoms:R:1 pbc="T T T"
Si      -2.30666400       0.45833544       0.12262736       0.00000000
Si       0.65265885       1.17682218      -1.93297803       0.00000000
Si       0.12507462      -2.12425347      -1.07340605       0.00000000
Si       1.00888857       1.05687891       2.04123174       0.00000000
Si      -0.38416707       3.23123553      -1.60085647       0.00000000
Si       0.08853615      -3.59468891       0.83447017       0.00000000
Si      -2.53234566       2.56292199      -0.88321559       0.00000000
Si      -2.85785244       0.63271989       2.35658404       0.00000000
Si       2.40904665      -2.31273691      -1.87145603       0.00000000
Si      -1.03070088       1.62725697       3.43953780       0.00000000
