10
Lattice="16.28999089631971 0.0 0.0 0.0 16.28999089631971 0.0 0.0 0.0 34.71893929493243" Properties=species:S:1:pos:R:3:initial_magmoms:R:1 pbc="T T T"
Si       0.39975660      -0.37735852      -2.25516996       0.00000000
Si      -0.91551429      -1.80713182       1.23342716       0.00000000
Si      -1.73910411       1.67427643       0.11490070       0.00000000
Si       1.88115291       0.99356945       1.22904909       0.00000000
Si       0.15734511       2.33912020      -2.39349029       0.00000000
Si      -2.07808272      -0.36083018       2.69915743       0.00000000
Si       0.63480501       2.37994294       2.68478031       0.00000000
Si      -2.45561976      -2.81046550      -0.36316031       0.00000000
Si       2.60775207      -1.05314917      -2.61933712       0.00000000
Si      -3.22950879       1.45116859      -1.67466897       0.00000000
