10
Lattice="16.28999089631971 0.0 0.0 0.0 16.28999089631971 0.0 0.0 0.0 34.71893929493243" Properties=species:S:1:pos:R:3:initial_magmoms:R:1 pbc="T T T"
Si      -1.34210052      -1.34760654       1.37465203       0.00000000
Si       1.37181348       1.36539522       1.37552001       0.00000000
Si       1.30737024      -1.42162830      -1.39528898       0.00000000
Si      -1.31996241       1.47320244      -1.41174924       0.00000000
Si       2.04854895       0.40149963      -2.79545741       0.00000000
Si       0.41835978       2.38725063      -2.80521344       0.00000000
Si      -2.72570796      -2.70093087      -0.00835338       0.00000000
Si       2.73417876      -2.69851995       0.01482152       0.00000000
Si      -2.70194085       0.00389331       2.73448949       0.00000000
Si       2.72614779       2.71560816       0.01628666       0.00000000
