10
Lattice="16.28999089631971 0.0 0.0 0.0 16.28999089631971 0.0 0.0 0.0 34.71893929493243" Properties=species:S:1:pos:R:3:initial_magmoms:R:1 pbc="T T T"
Si       1.42680852      -1.27689165       1.41011051       0.00000000
Si      -1.30737024       1.42162830       1.39528898       0.00000000
Si       0.74117871       1.82312793      -1.40016843       0.00000000
Si      -1.14639246      -1.72147833      -1.27868633       0.00000000
Si      -0.57891402       1.12811508      -3.38595399       0.00000000
Si       0.65793681      -3.41852166      -1.30642724       0.00000000
Si       2.66387112      -2.69964396      -0.00649939       0.00000000
Si       2.64153753       2.74004316      -0.07232653       0.00000000
Si       0.06348213      -2.64616389       2.77084371       0.00000000
Si      -2.64947076       0.07402176       2.76994102       0.00000000
