10
Lattice="16.28999089631971 0.0 0.0 0.0 16.28999089631971 0.0 0.0 0.0 34.71893929493243" Properties=species:S:1:pos:R:3:initial_magmoms:R:1 pbc="T T T"
Si       1.03682592      -2.05441335      -0.33212156       0.00000000
Si       0.10544517       1.16092314      -2.01293579       0.00000000
Si      -2.14817859      -0.66831354       0.71764088       0.00000000
Si       0.93607227       1.21090086       1.80614967       0.00000000
Si      -2.48217246       1.19803176       2.04643958       0.00000000
Si       2.44998342       1.52076924      -2.17312906       0.00000000
Si       0.38416707      -3.23123553       1.60085647       0.00000000
Si      -0.42386580      -0.53934561      -3.58115643       0.00000000
Si       0.18653679      -2.62850553      -2.55920388       0.00000000
Si      -1.63282815       2.77366572      -1.77854810       0.00000000
