10
Lattice="16.28999089631971 0.0 0.0 0.0 16.28999089631971 0.0 0.0 0.0 34.71893929493243" Properties=species:S:1:pos:R:3:initial_magmoms:R:1 pbc="T T T"
Si      -1.62241884       0.71967591       1.50892066       0.00000000
Si       1.08349677       2.02113288      -0.41072528       0.00000000
Si      -0.93607227      -1.21090086      -1.80614967       0.00000000
Si       1.53533250      -1.27337301       1.30643970       0.00000000
Si      -3.41824473      -0.01286910       0.24028991       0.00000000
Si       2.53213389       1.30284162      -2.07542991       0.00000000
Si       1.87211196       0.41917428       3.01346674       0.00000000
Si       2.13970779       2.35887345       1.65658040       0.00000000
Si      -3.08425086      -1.87921440      -1.08850879       0.00000000
Si       0.45698337      -3.38525748       1.83593854       0.00000000
