10
Lattice="16.28999089631971 0.0 0.0 0.0 16.28999089631971 0.0 0.0 0.0 34.71893929493243" Properties=species:S:1:pos:R:3:initial_magmoms:R:1 pbc="T T T"
Si       0.17536185       1.20529710       2.04508554       0.00000000
Si      -0.64865151      -1.72903689       1.53676527       0.00000000
Si       2.24324703       0.46270116      -0.77371199       0.00000000
Si      -1.68971283       0.39408768      -1.78240190       0.00000000
Si       0.36957123      -0.73606365       3.44061409       0.00000000
Si      -0.02668302       1.29401244      -3.31472314       0.00000000
Si      -1.89470619       2.25219024       2.04560633       0.00000000
Si       3.36269583       0.89808399       1.28640686       0.00000000
Si       0.53882433      -3.68235450       1.18825636       0.00000000
Si       2.13930054       2.31461352      -2.41078034       0.00000000
