10
Lattice="16.28999089631971 0.0 0.0 0.0 16.28999089631971 0.0 0.0 0.0 34.71893929493243" Properties=species:S:1:pos:R:3:initial_magmoms:R:1 pbc="T T T"
Si      -1.35412254       1.35922131      -1.35299782       0.00000000
Si      -1.35591444      -1.35832536       1.35667803       0.00000000
Si       1.35824391       1.35681039       1.35737241       0.00000000
Si       1.35671265      -1.35751086      -1.35955970       0.00000000
Si      -0.00700470       2.68864220      -2.70701638       0.00000000
Si      -2.71373481       2.71333213       0.00020831       0.00000000
Si      -0.00985545      -2.69009802      -2.73781209       0.00000000
Si       0.00078192       2.71411908       2.71405044       0.00000000
Si       2.71422351       2.71430496      -0.00069438       0.00000000
Si      -2.71417464      -0.00027693       2.71436291       0.00000000
