10
Lattice="16.28999089631971 0.0 0.0 0.0 16.28999089631971 0.0 0.0 0.0 34.71893929493243" Properties=species:S:1:pos:R:3:initial_magmoms:R:1 pbc="T T T"
Si      -1.26558639      -1.84753035      -0.47537198       0.00000000
Si       0.35386767       1.32349734      -1.89943951       0.00000000
Si       1.02086172       0.18679743       2.10136498       0.00000000
Si      -2.48306841       0.01086543       0.63042685       0.00000000
Si       0.31455990       2.46537747       2.18788462       0.00000000
Si      -1.99492227       2.30764140       1.31546663       0.00000000
Si       2.57810427       0.60088923      -2.07174970       0.00000000
Si      -1.26369675      -1.65442869      -2.78414802       0.00000000
Si      -0.19921041      -1.52063892       3.19115837       0.00000000
Si       3.31846848      -0.13010823       1.54648658       0.00000000
