10
Lattice="16.28999089631971 0.0 0.0 0.0 16.28999089631971 0.0 0.0 0.0 34.71893929493243" Properties=species:S:1:pos:R:3:initial_magmoms:R:1 pbc="T T T"
Si      -0.39975660       0.37735852       2.25516996       0.00000000
Si       2.20799547      -0.67579065      -0.36416716       0.00000000
Si      -1.66387689      -0.76966992      -1.45753661       0.00000000
Si      -0.24241149       2.71647872      -0.13832033       0.00000000
Si       2.28672504       0.99432761      -2.04373150       0.00000000
Si      -1.68863769       0.96914327      -3.00430093       0.00000000
Si      -2.40083649       2.46199634      -1.30039860       0.00000000
Si       2.15189271      -2.67765246      -1.59675963       0.00000000
Si      -2.13886071       2.05163495       2.37007066       0.00000000
Si       2.08352358       3.16904750      -0.69868432       0.00000000
