10
Lattice="16.28999089631971 0.0 0.0 0.0 16.28999089631971 0.0 0.0 0.0 34.71893929493243" Properties=species:S:1:pos:R:3:initial_magmoms:R:1 pbc="T T T"
Si       1.35704450       1.35538501      -1.35782376       0.00000000
Si      -1.35832536      -1.35929366      -1.35730297       0.00000000
Si      -1.36062225       1.35641128       1.35792791       0.00000000
Si       1.35855342      -1.36163951       1.36369126       0.00000000
Si      -2.71511946       2.71175557       0.00006944       0.00000000
Si      -0.00092853       2.71268411      -2.71453650       0.00000000
Si       2.71471777       2.71263523       0.00093741       0.00000000
Si       2.71422255      -0.00228712      -2.71446707       0.00000000
Si      -2.71766070       0.02692248       2.71248809       0.00000000
Si      -2.71629234      -0.00169579      -2.71436291       0.00000000
