10
Lattice="16.28999089631971 0.0 0.0 0.0 16.28999089631971 0.0 0.0 0.0 34.71893929493243" Properties=species:S:1:pos:R:3:initial_magmoms:R:1 pbc="T T T"
Si      -0.57171384       1.53095701       1.63922092       0.00000000
Si      -1.33630128      -1.34374060      -1.35653915       0.00000000
Si       1.42312698       1.30657855      -1.34098506       0.00000000
Si      -0.09454716      -1.86092140       2.14528446       0.00000000
Si      -1.31434236      -0.14621904       3.14130195       0.00000000
Si       2.25461812      -1.69670191       2.23114444       0.00000000
Si       2.60571160       2.74804807       0.13342496       0.00000000
Si      -2.62545930      -0.04141570      -2.77234357       0.00000000
Si       0.07846893       2.65869742      -2.74512391       0.00000000
Si      -3.19994244      -2.20563409      -0.18710047       0.00000000
