10
Lattice="16.28999089631971 0.0 0.0 0.0 16.28999089631971 0.0 0.0 0.0 34.71893929493243" Properties=species:S:1:pos:R:3:initial_magmoms:R:1 pbc="T T T"
Si      -1.06779321      -2.02952127      -0.54717079       0.00000000
Si      -1.64463840       1.46835616      -0.84887854       0.00000000
Si       1.41875704       0.66880224      -1.87662916       0.00000000
Si       2.02095273      -1.61222034       1.27623420       0.00000000
Si       0.20245212       2.70831838      -1.58613563       0.00000000
Si       0.99264974      -3.04464891      -0.33642671       0.00000000
Si       2.24224424       2.10785269       1.74730103       0.00000000
Si       0.85870033      -1.14404574       3.28712157       0.00000000
Si       3.48269516       0.22476942       0.91689298       0.00000000
Si      -2.20941270      -2.61855138       1.35949027       0.00000000
