10
Lattice="16.28999089631971 0.0 0.0 0.0 16.28999089631971 0.0 0.0 0.0 34.71893929493243" Properties=species:S:1:pos:R:3:initial_magmoms:R:1 pbc="T T T"
Si      -0.62270154      -0.84074971      -2.06963185       0.00000000
Si       1.84709052       1.23996222      -0.73725709       0.00000000
Si       1.64463840      -1.46835616       0.84887854       0.00000000
Si      -1.93886838       0.46255455       1.29932231       0.00000000
Si       3.06339544      -0.79955392      -1.02775062       0.00000000
Si      -2.90838402      -1.09560350      -1.57610185       0.00000000
Si       0.57684519      -3.49787744       0.30170775       0.00000000
Si      -3.45672171       0.88778871      -0.39996240       0.00000000
Si       0.11992698       0.83642634      -3.57171288       0.00000000
Si       2.92955517       2.17108233       1.10368098       0.00000000
