10
Lattice="16.28999089631971 0.0 0.0 0.0 16.28999089631971 0.0 0.0 0.0 34.71893929493243" Properties=species:S:1:pos:R:3:initial_magmoms:R:1 pbc="T T T"
Si      -1.48623444       0.25814600      -1.84007009       0.00000000
Si       1.52277291       1.83560118       0.12512713       0.00000000
Si       1.54935819      -1.75560166      -0.52199954       0.00000000
Si      -1.49726277      -0.86606992       1.73827411       0.00000000
Si      -1.45795500      -2.00795005      -2.34905003       0.00000000
Si      -0.79096095      -3.14464996       1.65175446       0.00000000
Si       1.39579236       2.53662504       2.38692841       0.00000000
Si       0.76628160      -2.73055816      -2.52136022       0.00000000
Si      -1.81182267      -3.33144739      -0.44961052       0.00000000
Si      -0.60781248       1.81890393      -3.43040671       0.00000000
