10
Lattice="16.28999089631971 0.0 0.0 0.0 16.28999089631971 0.0 0.0 0.0 34.71893929493243" Properties=species:S:1:pos:R:3:initial_magmoms:R:1 pbc="T T T"
Si      -2.32593507      -0.45256878       0.56036399       0.00000000
Si      -0.59512257       1.62996111      -1.72671269       0.00000000
Si       0.20320146      -2.17471989      -1.34504718       0.00000000
Si       2.62993905       0.83417832       0.77798243       0.00000000
Si       0.11269422       0.17127306       2.92427373       0.00000000
Si      -3.05215956       1.76319702       1.03486800       0.00000000
Si      -0.88329267       0.22841838      -3.67399493       0.00000000
Si      -2.12701788       3.10570479      -0.63573885       0.00000000
Si      -2.08352358      -3.16904750       0.69868432       0.00000000
Si       0.12447189      -3.84483815       0.33451717       0.00000000
