10
Lattice="16.28999089631971 0.0 0.0 0.0 16.28999089631971 0.0 0.0 0.0 34.71893929493243" Properties=species:S:1:pos:R:3:initial_magmoms:R:1 pbc="T T T"
Si       1.97642335       1.05911064       0.62942000       0.00000000
Si       0.79484449      -2.20434651      -0.12932812       0.00000000
Si      -0.21020290       0.63164475      -2.30985232       0.00000000
Si      -2.04752335       0.55511433       1.15093348       0.00000000
Si       1.33818115       3.23066538       0.25872568       0.00000000
Si      -3.23219731      -1.34309421       0.35711921       0.00000000
Si       2.20334305       0.39832308       2.83834431       0.00000000
Si       0.69746287       2.85951402      -2.19014135       0.00000000
Si      -2.57342971       0.40268880      -2.70846069       0.00000000
Si      -1.76552716      -0.28136088       3.31725763       0.00000000
