10
Lattice="16.28999089631971 0.0 0.0 0.0 16.28999089631971 0.0 0.0 0.0 34.71893929493243" Properties=species:S:1:pos:R:3:initial_magmoms:R:1 pbc="T T T"
Si      -0.28199619       0.83647521      -2.16632415       0.00000000
Si      -2.09834748       0.57953304       0.95893764       0.00000000
Si       1.92346360       1.22033277       0.68580359       0.00000000
Si      -0.46441161      -2.13104151      -1.02146648       0.00000000
Si      -1.46667015      -1.06173333      -2.96013842       0.00000000
Si       0.98024979       3.45497868       0.32420564       0.00000000
Si      -2.68578117      -1.39696524       2.08754683       0.00000000
Si      -2.16626049      -3.01804830       0.45860273       0.00000000
Si       1.76552716       0.28136088      -3.31725763       0.00000000
Si      -2.03458842       2.26841508       2.59513801       0.00000000
