10
Lattice="16.28999089631971 0.0 0.0 0.0 16.28999089631971 0.0 0.0 0.0 34.71893929493243" Properties=species:S:1:pos:R:3:initial_magmoms:R:1 pbc="T T T"
Si      -1.85839578      -0.02800251      -1.39559798       0.00000000
Si      -0.51952068       1.62108306       1.62894410       0.00000000
Si       0.58262814      -2.03136300       1.06743439       0.00000000
Si       1.70184888       0.88700679      -1.48006921       0.00000000
Si      -1.54795725      -2.04806025      -2.48809946       0.00000000
Si       0.45564759      -1.33033914       3.32923567       0.00000000
Si       0.06791301       3.59758134       0.50033491       0.00000000
Si       0.92598876       0.95891085       3.40058313       0.00000000
Si       2.16626049       3.01804830      -0.45860273       0.00000000
Si      -1.58213367       1.50260589      -3.14880124       0.00000000
