10
Lattice="16.28999089631971 0.0 0.0 0.0 16.28999089631971 0.0 0.0 0.0 34.71893929493243" Properties=species:S:1:pos:R:3:initial_magmoms:R:1 pbc="T T T"
Si      -1.35433431      -1.35021294       1.35923335       0.00000000
Si       1.36073628       1.36324494       1.35964997       0.00000000
Si      -1.24175412       1.34944731      -1.49855358       0.00000000
Si       1.22275998      -1.39719330      -1.48390218       0.00000000
Si       2.06205336       0.64804878      -2.42601779       0.00000000
Si       0.45221040       2.39917491      -2.72390511       0.00000000
Si      -2.30778801      -0.32835753      -2.82150010       0.00000000
Si      -0.67759884      -2.31410853      -2.81174407       0.00000000
Si       0.00338832      -2.70845685       2.71775148       0.00000000
Si      -2.71065600       2.71552671      -0.03810753       0.00000000
