10
Lattice="16.28999089631971 0.0 0.0 0.0 16.28999089631971 0.0 0.0 0.0 34.71893929493243" Properties=species:S:1:pos:R:3:initial_magmoms:R:1 pbc="T T T"
Si       1.35656604      -1.35967743       1.35386579       0.00000000
Si       1.35628911       1.35720135      -1.35761544       0.00000000
Si      -1.35874890      -1.35741312      -1.35758072       0.00000000
Si      -1.36129014       1.35698958       1.36133037       0.00000000
Si       0.00913869      -2.71287144       2.70415554       0.00000000
Si       2.71293660      -2.71388142       0.00041663       0.00000000
Si       2.71287144       0.00032580      -2.71460594       0.00000000
Si       2.71362078       2.71427238      -0.00013888       0.00000000
Si      -0.00185706      -2.71430496      -2.71450179       0.00000000
Si      -0.00187335       2.71459818      -2.71422403       0.00000000
