10
Lattice="16.28999089631971 0.0 0.0 0.0 16.28999089631971 0.0 0.0 0.0 34.71893929493243" Properties=species:S:1:pos:R:3:initial_magmoms:R:1 pbc="T T T"
Si       1.35638685      -1.35723393       1.35581006       0.00000000
Si      -1.35653346       1.35549090       1.35921251       0.00000000
Si      -1.35733167      -1.35707103      -1.35747657       0.00000000
Si       1.35775704       1.35775521      -1.35747657       0.00000000
Si       0.01190799      -2.71740006       2.70589148       0.00000000
Si       2.71413947      -2.71264338       0.00041663       0.00000000
Si      -2.69465922       0.00017919       2.73304171       0.00000000
Si      -2.71362078      -2.71427238       0.00013888       0.00000000
Si      -0.00074934      -2.71394658      -2.71446707       0.00000000
Si       2.71450111       0.00092853      -2.71457122       0.00000000
