10
Lattice="16.28999089631971 0.0 0.0 0.0 16.28999089631971 0.0 0.0 0.0 34.71893929493243" Properties=species:S:1:pos:R:3:initial_magmoms:R:1 pbc="T T T"
Si       1.14161949       0.58903011      -1.90666105       0.00000000
Si      -2.22423660       0.72260811       0.17231019       0.00000000
Si       0.14208138      -2.34582516       0.14151448       0.00000000
Si       0.78307659       0.97495650       1.99936067       0.00000000
Si      -2.57810427      -0.60088923       2.07174970       0.00000000
Si       3.20206244      -0.42609753      -1.69591698       0.00000000
Si       2.20941270       2.61855138      -1.35949027       0.00000000
Si       1.10537424      -2.71251306       2.30433201       0.00000000
Si       0.74036421      -0.73099746       3.61823628       0.00000000
Si      -0.76628160       2.73055816       2.52136022       0.00000000
