10
Lattice="16.28999089631971 0.0 0.0 0.0 16.28999089631971 0.0 0.0 0.0 34.71893929493243" Properties=species:S:1:pos:R:3:initial_magmoms:R:1 pbc="T T T"
Si      -2.16860625       0.80804916       0.16387349       0.00000000
Si       1.07756721      -1.18170918      -1.78924154       0.00000000
Si       1.03578336      -1.14671826       1.84552097       0.00000000
Si       1.01401992       1.98726597      -0.96338167       0.00000000
Si       1.15652484       0.89642241      -3.09509101       0.00000000
Si       3.21555545      -0.25536204       1.16131445       0.00000000
Si       3.08082086       2.02136094       0.18664912       0.00000000
Si       3.24331361      -1.60790445      -0.79752920       0.00000000
Si      -2.11250349       2.80991097       1.39646596       0.00000000
Si       0.11476305      -3.32430030       1.86090147       0.00000000
