10
Lattice="16.28999089631971 0.0 0.0 0.0 16.28999089631971 0.0 0.0 0.0 34.71893929493243" Properties=species:S:1:pos:R:3:initial_magmoms:R:1 pbc="T T T"
Si      -1.35778127      -1.35650088       1.35719881       0.00000000
Si      -1.35741964       1.35707103      -1.35778904       0.00000000
Si       1.35777150       1.35907470       1.35629612       0.00000000
Si       1.35759231      -1.35824391      -1.35813623       0.00000000
Si      -0.00076563       2.71389771       2.71401572       0.00000000
Si      -2.71416371       2.71389771      -0.00069438       0.00000000
Si      -2.71553390      -0.00109143       2.71259224       0.00000000
Si       2.71396287      -0.00060273      -2.71554335       0.00000000
Si       2.71510317       2.71489140      -0.00041663       0.00000000
Si      -0.00022806       2.71515204      -2.71516145       0.00000000
