10
Lattice="16.28999089631971 0.0 0.0 0.0 16.28999089631971 0.0 0.0 0.0 34.71893929493243" Properties=species:S:1:pos:R:3:initial_magmoms:R:1 pbc="T T T"
Si       0.83862875      -1.65020958      -1.49544971       0.00000000
Si       0.21020290      -0.63164475       2.30985232       0.00000000
Si      -2.36322681      -0.22895595      -0.39860836       0.00000000
Si       0.90766577       2.22786927       0.11971097       0.00000000
Si      -0.25878946       1.46013786      -2.75227601       0.00000000
Si       1.02042515      -3.52331523      -0.07415970       0.00000000
Si       2.18662625       0.42746589       2.93927232       0.00000000
Si       1.00504739      -2.83599126       2.18052420       0.00000000
Si      -2.83995366      -2.43253683       0.26500981       0.00000000
Si      -0.89008886       3.70748997      -0.51717361       0.00000000
