10
Lattice="16.28999089631971 0.0 0.0 0.0 16.28999089631971 0.0 0.0 0.0 34.71893929493243" Properties=species:S:1:pos:R:3:initial_magmoms:R:1 pbc="T T T"
Si      -1.31727456       1.36028016      -1.42250518       0.00000000
Si       0.24519708       0.66398040       2.26284285       0.00000000
Si       2.18650896       0.03487689      -1.00768306       0.00000000
Si      -0.96451461      -2.20610583       0.15206904       0.00000000
Si      -1.91870299      -2.32191144      -2.01161647       0.00000000
Si       2.21565177      -0.58173219       2.82803278       0.00000000
Si      -2.86191679      -0.08726553      -2.37321442       0.00000000
Si       3.63196953      -0.45981783       0.85738469       0.00000000
Si       1.15973397       2.90949174       2.08542897       0.00000000
Si       2.16718902      -1.82825928      -2.50847948       0.00000000
