10
Lattice="16.28999089631971 0.0 0.0 0.0 16.28999089631971 0.0 0.0 0.0 34.71893929493243" Properties=species:S:1:pos:R:3:initial_magmoms:R:1 pbc="T T T"
Si      -1.31665587       1.36436895       1.30964078       0.00000000
Si       1.00091299       1.74040731      -1.13759828       0.00000000
Si       1.41114406      -1.38165264       1.28394876       0.00000000
Si      -1.95157525      -0.73298484      -1.13784374       0.00000000
Si      -2.65289233      -0.01778868       2.64782403       0.00000000
Si      -2.57579176       2.73261492      -0.19548857       0.00000000
Si       2.41312567       0.80765820      -2.77327894       0.00000000
Si       0.05770570       2.70107748       2.65080986       0.00000000
Si       2.70334831       2.66968665       0.06232053       0.00000000
Si       0.06135303      -2.72859129       2.64518538       0.00000000
