10
Lattice="16.28999089631971 0.0 0.0 0.0 16.28999089631971 0.0 0.0 0.0 34.71893929493243" Properties=species:S:1:pos:R:3:initial_magmoms:R:1 pbc="T T T"
Si      -2.28503644      -0.49954914       0.07172937       0.00000000
Si      -0.07412602       2.35761002       0.12259264       0.00000000
Si       1.16225240      -0.46817460      -2.01088737       0.00000000
Si       1.06287852      -1.36822968       1.70102066       0.00000000
Si      -0.85870033       1.14404574      -3.28712157       0.00000000
Si      -2.32774882      -2.20550310       1.69060497       0.00000000
Si       1.12313197       2.73638510       2.12209219       0.00000000
Si       2.80748539      -1.98057078      -1.25630552       0.00000000
Si       1.79690266      -3.24640152       0.46773381       0.00000000
Si       2.62399483       1.36881516      -2.37022859       0.00000000
