10
Lattice="16.28999089631971 0.0 0.0 0.0 16.28999089631971 0.0 0.0 0.0 34.45770212530097" Properties=species:S:1:pos:R:3:initial_magmoms:R:1 pbc="T T T"
Si      -1.35305554      -1.34761283       1.36975989       0.00000000
Si       1.36106208       1.36790966       1.36452232       0.00000000
Si      -1.26398997       1.45809599      -1.38416322       0.00000000
Si       1.37163429      -1.31705279      -1.44268622       0.00000000
Si       2.07257670       0.39008449      -2.93998589       0.00000000
Si       0.61154289       2.34268209      -2.73037957       0.00000000
Si      -2.69989550      -2.69121203       0.00298404       0.00000000
Si      -2.68784090       2.71968156       0.01866230       0.00000000
Si       0.00568521      -2.70468386       2.72401726       0.00000000
Si      -2.70837033       0.00747462       2.72587798       0.00000000
