10
Lattice="16.28999089631971 0.0 0.0 0.0 16.28999089631971 0.0 0.0 0.0 34.45770212530097" Properties=species:S:1:pos:R:3:initial_magmoms:R:1 pbc="T T T"
Si       1.28767563       1.95556563      -0.14517038       0.00000000
Si       1.31663925      -1.92640653      -0.44608966       0.00000000
Si      -2.21223250       0.07371225      -0.91499033       0.00000000
Si      -0.42070554      -0.37675512       2.33010004       0.00000000
Si      -2.16088153      -2.23220241      -1.34016416       0.00000000
Si      -0.45362763      -3.40153119      -0.18607170       0.00000000
Si      -0.75899997       1.84189401       2.93838219       0.00000000
Si       0.01427004       3.26949489      -1.66809829       0.00000000
Si       1.80573021      -0.90238455       3.06580684       0.00000000
Si       3.01493691      -1.73423340       1.19364993       0.00000000
