10
Lattice="16.28999089631971 0.0 0.0 0.0 16.28999089631971 0.0 0.0 0.0 34.45770212530097" Properties=species:S:1:pos:R:3:initial_magmoms:R:1 pbc="T T T"
Si      -0.76605354      -1.66317479       1.45797511       0.00000000
Si       1.01799468       1.82254149       1.09286109       0.00000000
Si      -1.88530686       1.13327901      -0.91816044       0.00000000
Si       1.88778294      -0.96967854      -1.13820745       0.00000000
Si       2.26665576       2.33321670      -0.91822936       0.00000000
Si       0.56881422      -1.67799543       3.38409282       0.00000000
Si       3.20336334      -2.03846055       0.48595724       0.00000000
Si      -3.07755567      -1.32819701       1.90003321       0.00000000
Si      -2.98585926       2.41587216       0.76416889       0.00000000
Si       2.73285927      -1.17366192       2.60369434       0.00000000
