10
Lattice="16.28999089631971 0.0 0.0 0.0 16.28999089631971 0.0 0.0 0.0 34.45770212530097" Properties=species:S:1:pos:R:3:initial_magmoms:R:1 pbc="T T T"
Si      -0.18257832      -2.09347255       1.04141571       0.00000000
Si      -2.18217582       0.07501219      -1.01732977       0.00000000
Si       1.85789079       0.61383652      -1.45201392       0.00000000
Si       0.13136256       1.79073852       1.78825237       0.00000000
Si      -2.54576862       2.30530704      -0.63701990       0.00000000
Si      -2.21817672       2.64628932       1.69786976       0.00000000
Si       2.03789529       3.11508294       1.06770695       0.00000000
Si      -2.15700777      -0.75490696      -3.21245891       0.00000000
Si       2.37257334       2.92587459      -1.23127776       0.00000000
Si      -1.63895319      -3.61285714      -0.00148168       0.00000000
