10
Lattice="16.28999089631971 0.0 0.0 0.0 16.28999089631971 0.0 0.0 0.0 34.45770212530097" Properties=species:S:1:pos:R:3:initial_magmoms:R:1 pbc="T T T"
Si       1.35803214       1.35721764      -1.35649712       0.00000000
Si      -1.35705474       1.35738054       1.35742748       0.00000000
Si       1.35777150      -1.35783666       1.35763422       0.00000000
Si      -1.35870003      -1.35734796      -1.35739302       0.00000000
Si      -2.71545015      -0.00032580      -2.71065111       0.00000000
Si       2.71399545      -0.00035838      -2.71447592       0.00000000
Si      -2.71462099       2.71446786       0.00031012       0.00000000
Si      -0.00040725      -2.71547458       2.71361447       0.00000000
Si      -0.00109143       2.71482624       2.71426917       0.00000000
Si      -2.71480506      -0.00118917       2.71506170       0.00000000
