10
Lattice="16.28999089631971 0.0 0.0 0.0 16.28999089631971 0.0 0.0 0.0 34.45770212530097" Properties=species:S:1:pos:R:3:initial_magmoms:R:1 pbc="T T T"
Si      -0.45406746       2.14738038       0.87836178       0.00000000
Si      -1.47989763      -1.15338087      -1.51837949       0.00000000
Si       1.17416691       1.55712852      -1.49319090       0.00000000
Si       1.42930089      -0.90756477       1.88073689       0.00000000
Si       0.58419198       1.13552703       3.12445389       0.00000000
Si       2.49206049       0.20561238      -2.98231579       0.00000000
Si      -3.33912583      -2.02558005      -0.23486383       0.00000000
Si      -0.20614995      -2.51568099      -2.99444490       0.00000000
Si      -0.22390605       2.91503034      -2.98769119       0.00000000
Si      -2.90745875       0.20702961      -2.99764947       0.00000000
