10
Lattice="16.28999089631971 0.0 0.0 0.0 16.28999089631971 0.0 0.0 0.0 34.45770212530097" Properties=species:S:1:pos:R:3:initial_magmoms:R:1 pbc="T T T"
Si       0.83852775       1.69199343      -1.37148623       0.00000000
Si       1.73371212      -1.44609588       0.59646316       0.00000000
Si      -0.72267327       1.22673474       1.87928967       0.00000000
Si      -1.93528458      -1.30939020      -0.44550388       0.00000000
Si      -1.19997027      -3.12300477       0.86299363       0.00000000
Si      -0.92587473       3.23284824      -1.01857024       0.00000000
Si       1.32491457       1.18685682       3.08465522       0.00000000
Si       1.65060054      -1.25711559       2.91839671       0.00000000
Si      -2.27067939       2.67219531       0.84807344       0.00000000
Si      -0.60079149      -2.06040807       2.99447936       0.00000000
