10
Lattice="16.28999089631971 0.0 0.0 0.0 16.28999089631971 0.0 0.0 0.0 34.45770212530097" Properties=species:S:1:pos:R:3:initial_magmoms:R:1 pbc="T T T"
Si       1.40789583      -1.44019890       1.19809497       0.00000000
Si      -2.33455248      -0.25153389       0.18848374       0.00000000
Si       0.27774450      -0.02726946      -2.34236698       0.00000000
Si       0.44575956       2.22078312       0.71975288       0.00000000
Si       2.72093499       1.51140249       1.40129216       0.00000000
Si       1.78486272      -0.09171270       3.04613149       0.00000000
Si      -2.74056444      -1.25317341      -1.89789684       0.00000000
Si       0.60343047      -2.47124187      -2.50862549       0.00000000
Si       3.60771372      -0.56040858       0.72350878       0.00000000
Si       0.95936697       3.45735702      -1.17631769       0.00000000
