10
Lattice="16.28999089631971 0.0 0.0 0.0 16.28999089631971 0.0 0.0 0.0 34.45770212530097" Properties=species:S:1:pos:R:3:initial_magmoms:R:1 pbc="T T T"
Si      -1.35562122      -1.35573525      -1.35846121       0.00000000
Si      -1.35332433       1.35987291       1.35804772       0.00000000
Si       1.35954711      -1.35303111       1.36114891       0.00000000
Si       1.35927018       1.35918873      -1.35822000       0.00000000
Si       0.01044189       2.69529453       2.70934172       0.00000000
Si      -2.71437012      -2.71322982      -0.00165397       0.00000000
Si      -2.71251306       0.00136836      -2.71554411       0.00000000
Si       0.00215028      -2.71309950      -2.71595760       0.00000000
Si      -2.71269225       2.71684620      -0.00127494       0.00000000
Si       2.71770957      -2.71340901      -0.00137831       0.00000000
