10
Lattice="16.28999089631971 0.0 0.0 0.0 16.28999089631971 0.0 0.0 0.0 34.45770212530097" Properties=species:S:1:pos:R:3:initial_magmoms:R:1 pbc="T T T"
Si      -1.35521397      -1.34755767      -1.37737850       0.00000000
Si       1.36047564       1.36990755      -1.37314020       0.00000000
Si      -1.44474381       1.32199866       1.35546339       0.00000000
Si       1.39807296      -1.35790182       1.49450029       0.00000000
Si       0.41418954       2.15260947       2.49587613       0.00000000
Si      -2.68355270      -2.70800073      -0.00995828       0.00000000
Si       2.71596654      -2.70941796       0.00537540       0.00000000
Si       2.72424186       2.70532917      -0.02184620       0.00000000
Si      -0.00057015      -2.70319518      -2.73284188       0.00000000
Si      -2.70753809       2.73688290      -0.01743561       0.00000000
