10
Lattice="16.28999089631971 0.0 0.0 0.0 16.28999089631971 0.0 0.0 0.0 34.45770212530097" Properties=species:S:1:pos:R:3:initial_magmoms:R:1 pbc="T T T"
Si       0.49124124       2.28488427      -0.60252772       0.00000000
Si      -1.32652728       0.84214413       1.93056276       0.00000000
Si       2.08365390      -1.34273583      -0.58712511       0.00000000
Si      -0.67500873      -2.44794717      -0.62106597       0.00000000
Si      -0.46628496      -2.82119994       1.73232748       0.00000000
Si       2.96210844       1.17465561       1.43836866       0.00000000
Si      -1.71326817      -1.43609382      -2.86715808       0.00000000
Si      -1.56507804      -1.22381883       3.08834219       0.00000000
Si      -1.67697405       2.54433510      -2.30025965       0.00000000
Si      -3.45336597       1.40400252       0.91092432       0.00000000
