10
Lattice="16.28999089631971 0.0 0.0 0.0 16.28999089631971 0.0 0.0 0.0 34.45770212530097" Properties=species:S:1:pos:R:3:initial_magmoms:R:1 pbc="T T T"
Si       0.70094241       1.70713728      -1.49729968       0.00000000
Si      -1.37163429       1.31705279       1.44268622       0.00000000
Si       1.36145304      -1.39452174       1.41715649       0.00000000
Si      -1.45182996      -1.61200953      -1.87371583       0.00000000
Si      -1.19071755       0.60400062      -3.05041255       0.00000000
Si      -2.68526966      -2.56223781      -0.03325515       0.00000000
Si       2.68395669       2.62419750       0.00222597       0.00000000
Si      -2.63562426       2.77514878       0.05852299       0.00000000
Si      -0.01057221       2.68496245       2.80720854       0.00000000
Si       2.71006956      -0.03096729       2.80975841       0.00000000
