10
Lattice="16.28999089631971 0.0 0.0 0.0 16.28999089631971 0.0 0.0 0.0 34.45770212530097" Properties=species:S:1:pos:R:3:initial_magmoms:R:1 pbc="T T T"
Si       1.35738054       1.35710361      -1.35722073       0.00000000
Si      -1.35762489      -1.35773892      -1.35732410       0.00000000
Si      -1.35785295       1.35830907       1.35790988       0.00000000
Si       1.35936792      -1.35697329       1.35932265       0.00000000
Si      -2.70864581       0.01000206       2.71502724       0.00000000
Si       2.71249677       2.71344159       0.00031012       0.00000000
Si      -2.71428867       2.71443528       0.00155060       0.00000000
Si      -0.00061902       2.71534752      -2.71409688       0.00000000
Si      -2.71504941      -0.00013032      -2.71447592       0.00000000
Si       2.71269225      -2.71684620       0.00127494       0.00000000
