10
Lattice="16.28999089631971 0.0 0.0 0.0 16.28999089631971 0.0 0.0 0.0 34.45770212530097" Properties=species:S:1:pos:R:3:initial_magmoms:R:1 pbc="T T T"
Si      -1.07756721      -1.74229695       1.13517517       0.00000000
Si       1.40113548      -1.26535833      -1.45135922       0.00000000
Si       0.83652408       1.79597969       1.32290084       0.00000000
Si      -1.29836187       1.39587774      -1.45339223       0.00000000
Si       0.43088679       0.48295030       3.29081577       0.00000000
Si      -1.75653441      -0.28654110       3.03813729       0.00000000
Si       0.74551185      -3.43261251       1.23820376       0.00000000
Si      -2.65699674       2.65721570      -0.09965173       0.00000000
Si       2.65267989      -2.67216273      -0.09593030       0.00000000
Si      -0.96730020       3.42717884       1.29719538       0.00000000
