10
Lattice="16.28999089631971 0.0 0.0 0.0 16.28999089631971 0.0 0.0 0.0 34.45770212530097" Properties=species:S:1:pos:R:3:initial_magmoms:R:1 pbc="T T T"
Si      -1.09980306      -0.36790965      -2.01932585       0.00000000
Si      -1.19897658      -0.59078943       1.95654388       0.00000000
Si      -0.33159924       2.32032384       0.52940843       0.00000000
Si       1.93891725      -1.48035375       0.32428162       0.00000000
Si       0.71928495       0.07126875       3.18265298       0.00000000
Si       1.00326852       2.30550319       2.45552614       0.00000000
Si      -0.58316571      -2.69952993      -2.38120084       0.00000000
Si      -2.64310137       2.65530162       0.97146654       0.00000000
Si       3.81666555      -0.37030428      -0.53654118       0.00000000
Si      -3.45672171      -0.08687457      -1.75968692       0.00000000
