10
Lattice="16.28999089631971 0.0 0.0 0.0 16.28999089631971 0.0 0.0 0.0 34.45770212530097" Properties=species:S:1:pos:R:3:initial_magmoms:R:1 pbc="T T T"
Si      -1.33501437      -1.34543329       1.36219298       0.00000000
Si       1.28135511      -1.44226105      -1.36177259       0.00000000
Si       1.37845980       1.36846997       1.35964311       0.00000000
Si      -1.36112724       1.30973149      -1.44533946       0.00000000
Si       0.44913159       2.10163563      -2.90058693       0.00000000
Si       2.35608786       0.13665911      -2.80875711       0.00000000
Si      -2.68363089      -2.70898774      -0.03040894       0.00000000
Si      -2.69566920       0.00985963       2.71924142       0.00000000
Si      -2.68099191       2.73756465      -0.01135382       0.00000000
Si       0.01984122      -2.70318850       2.72117105       0.00000000
