10
Lattice="16.28999089631971 0.0 0.0 0.0 16.28999089631971 0.0 0.0 0.0 34.45770212530097" Properties=species:S:1:pos:R:3:initial_magmoms:R:1 pbc="T T T"
Si       1.35430173       1.34931699       1.38182010       0.00000000
Si      -1.35617508      -1.36819873       1.38075191       0.00000000
Si       1.31211063      -1.45673488      -1.37137941       0.00000000
Si      -1.37383344       1.29091734      -1.55757170       0.00000000
Si      -2.28550329      -0.63503307      -2.87947813       0.00000000
Si      -0.37854702      -2.60000960      -2.78764831       0.00000000
Si       2.71423980       2.70427032      -0.00431755       0.00000000
Si      -2.72326446       2.69703756      -0.01374863       0.00000000
Si       0.00068418       2.70366759       2.74124612       0.00000000
Si       2.71570590      -0.00892692       2.74048805       0.00000000
