10
Lattice="16.28999089631971 0.0 0.0 0.0 16.28999089631971 0.0 0.0 0.0 34.45770212530097" Properties=species:S:1:pos:R:3:initial_magmoms:R:1 pbc="T T T"
Si       0.17884791      -2.31534235      -0.09393175       0.00000000
Si      -0.47050407       0.86479863       2.11773710       0.00000000
Si      -1.31558040       1.06878201      -1.62416470       0.00000000
Si       2.30208651       0.49016773      -0.26718517       0.00000000
Si       1.15867512      -0.41575338       3.23906027       0.00000000
Si      -0.58671693      -2.37152656      -2.50724718       0.00000000
Si       3.09617514      -0.24192442       1.87422438       0.00000000
Si       2.24600004       2.82398064      -0.52396411       0.00000000
Si       0.53980173       2.72306409      -2.40156535       0.00000000
Si      -1.74078198      -0.38730615      -3.34612041       0.00000000
