10
Lattice="16.28999089631971 0.0 0.0 0.0 16.28999089631971 0.0 0.0 0.0 34.45770212530097" Properties=species:S:1:pos:R:3:initial_magmoms:R:1 pbc="T T T"
Si      -0.42520158      -1.45608817      -1.72195571       0.00000000
Si       1.31558040      -1.06878201       1.62416470       0.00000000
Si      -1.88778294       0.96967854       1.13820745       0.00000000
Si       1.85538213       1.65428208      -0.77740065       0.00000000
Si       0.37887282       3.30289524       0.21997809       0.00000000
Si       0.72886347      -3.44030858      -0.88308248       0.00000000
Si      -0.86978826       2.79222003       2.23106854       0.00000000
Si      -0.01956429      -0.14305878      -3.68987064       0.00000000
Si      -2.65383648      -0.69349625       2.59618256       0.00000000
Si       0.84507633      -0.20398338       3.74190180       0.00000000
