10
Lattice="16.28999089631971 0.0 0.0 0.0 16.28999089631971 0.0 0.0 0.0 34.45770212530097" Properties=species:S:1:pos:R:3:initial_magmoms:R:1 pbc="T T T"
Si       1.35518139      -1.35742941      -1.35715181       0.00000000
Si      -1.35806472       1.35860229      -1.35715181       0.00000000
Si      -1.34004798      -1.37808513       1.35839229       0.00000000
Si       1.36060596       1.35796698       1.38792256       0.00000000
Si      -0.22384089       2.50044984       2.82694592       0.00000000
Si      -2.71173114      -2.71406061       0.00272216       0.00000000
Si       2.71451673      -2.71210581       0.00327348       0.00000000
Si       2.71366965       0.00109143      -2.71382122       0.00000000
Si      -0.00118917      -2.71388142      -2.71409688       0.00000000
Si      -2.71570590       0.00097740      -2.71413134       0.00000000
