10
Lattice="16.28999089631971 0.0 0.0 0.0 16.28999089631971 0.0 0.0 0.0 34.45770212530097" Properties=species:S:1:pos:R:3:initial_magmoms:R:1 pbc="T T T"
Si       1.35702216       1.35759231      -1.35697953       0.00000000
Si      -1.35764118      -1.35762489      -1.35697953       0.00000000
Si       1.35806472      -1.35860229       1.35715181       0.00000000
Si      -1.35816246       1.36037790       1.36252722       0.00000000
Si       2.71482624       2.71370223      -0.00031012       0.00000000
Si       2.71420722       0.00022806      -2.71447592       0.00000000
Si      -0.00035838       2.71480995      -2.71433809       0.00000000
Si       2.71324611      -2.71603170       0.00000000       0.00000000
Si      -0.00078192      -2.71497285      -2.71451038       0.00000000
Si      -2.71555929       0.00030951      -2.71457929       0.00000000
