10
Lattice="16.28999089631971 0.0 0.0 0.0 16.28999089631971 0.0 0.0 0.0 34.45770212530097" Properties=species:S:1:pos:R:3:initial_magmoms:R:1 pbc="T T T"
Si      -1.71597231      -0.82777635      -1.38127222       0.00000000
Si       1.90140138      -1.55756835       0.34692034       0.00000000
Si       0.90122796       1.93378590      -1.28427373       0.00000000
Si      -1.55774754       0.18836127       2.02849160       0.00000000
Si      -0.21497913      -1.94474907      -2.75282736       0.00000000
Si       1.14098418      -3.29768244      -1.22573007       0.00000000
Si      -2.60814303      -2.63985966      -0.00627131       0.00000000
Si       2.48567481       0.79130304      -2.72329709       0.00000000
Si      -2.16841077       3.24811197       0.43947378       0.00000000
Si       1.07062767      -2.47371795       2.93190414       0.00000000
