10
Lattice="16.28999089631971 0.0 0.0 0.0 16.28999089631971 0.0 0.0 0.0 34.45770212530097" Properties=species:S:1:pos:R:3:initial_magmoms:R:1 pbc="T T T"
Si      -2.02494474      -0.35352558       0.99183105       0.00000000
Si       1.53095049      -1.38515499       1.11243308       0.00000000
Si      -0.25640460      -0.85607208      -2.17855498       0.00000000
Si       0.69066342       2.22438321       0.37796675       0.00000000
Si       1.58578263       0.18186156      -3.14443936       0.00000000
Si       3.52090431      -1.03368195      -0.23903321       0.00000000
Si       3.27637512       0.87871518      -1.66351542       0.00000000
Si      -2.73931011      -2.53042344       0.61944646       0.00000000
Si      -0.29038554      -3.24658071      -2.14733628       0.00000000
Si      -0.76273038       3.75914556      -0.76020625       0.00000000
