10
Lattice="16.28999089631971 0.0 0.0 0.0 16.28999089631971 0.0 0.0 0.0 34.45770212530097" Properties=species:S:1:pos:R:3:initial_magmoms:R:1 pbc="T T T"
Si      -0.69066342      -2.22438321      -0.37796675       0.00000000
Si       2.27525688       0.43406334      -0.49215963       0.00000000
Si      -1.45339380       1.53476235      -1.13817299       0.00000000
Si       0.01585017       0.52409817       2.34715661       0.00000000
Si      -1.30489416       3.10101327       0.57006854       0.00000000
Si       2.58571170      -1.34566803      -2.04148216       0.00000000
Si       1.74250872       2.05794828       2.36128427       0.00000000
Si      -1.77132573       1.97947935       2.61423841       0.00000000
Si       2.23226757       2.75858118      -1.23592955       0.00000000
Si       0.84028707      -3.60953820       0.73446633       0.00000000
