10
Lattice="16.28999089631971 0.0 0.0 0.0 16.28999089631971 0.0 0.0 0.0 34.45770212530097" Properties=species:S:1:pos:R:3:initial_magmoms:R:1 pbc="T T T"
Si       0.67057785      -0.44880579      -2.19220023       0.00000000
Si      -0.88677873       2.07181107       0.67778338       0.00000000
Si      -2.19981789      -0.87979032       0.47458620       0.00000000
Si       1.01028951      -1.50008094       1.62623216       0.00000000
Si      -1.82285100       0.46869588       2.32262271       0.00000000
Si      -0.27707661      -0.87232950       3.46101283       0.00000000
Si      -1.75728375      -3.16612440       0.16453562       0.00000000
Si      -3.60771372       0.56040858      -0.72350878       0.00000000
Si       2.89457010       0.27474714      -2.39160707       0.00000000
Si       0.72433485       3.22271586       1.89086746       0.00000000
