10
Lattice="16.28999089631971 0.0 0.0 0.0 16.28999089631971 0.0 0.0 0.0 34.45770212530097" Properties=species:S:1:pos:R:3:initial_magmoms:R:1 pbc="T T T"
Si      -1.35602847       1.35389448      -1.35508435       0.00000000
Si       1.35850455       1.35466011       1.35735856       0.00000000
Si      -1.35669636      -1.35984033       1.35711736       0.00000000
Si       1.35827649      -1.36047564      -1.36183806       0.00000000
Si      -2.71285515       2.71199178      -0.00044795       0.00000000
Si       0.00042354       2.71244790       2.71485495       0.00000000
Si       2.71624347       2.71270854       0.00010337       0.00000000
Si      -2.71446786      -0.00247608       2.71461375       0.00000000
Si       2.71588509      -0.00255753       2.71471712       0.00000000
Si      -2.71409319      -2.71757925       0.00065470       0.00000000
