10
Lattice="16.28999089631971 0.0 0.0 0.0 16.28999089631971 0.0 0.0 0.0 34.45770212530097" Properties=species:S:1:pos:R:3:initial_magmoms:R:1 pbc="T T T"
Si      -1.61111358      -1.15090479      -1.21308408       0.00000000
Si      -0.09640422       1.08336645      -2.06363848       0.00000000
Si      -1.05081903       1.43555625       1.56909062       0.00000000
Si       1.91738187      -1.33623612       1.06567395       0.00000000
Si       1.12840830       3.28748490      -0.71616928       0.00000000
Si      -2.15537877      -0.26885016       2.80926364       0.00000000
Si       0.68701446       2.39878395       2.80628993       0.00000000
Si      -2.54718585      -2.75401998       0.43175525       0.00000000
Si      -0.72433485      -3.22271586      -1.89086746       0.00000000
Si       0.62641566      -2.89623168       2.69771021       0.00000000
