10
Lattice="16.28999089631971 0.0 0.0 0.0 16.28999089631971 0.0 0.0 0.0 34.45770212530097" Properties=species:S:1:pos:R:3:initial_magmoms:R:1 pbc="T T T"
Si       0.60703056       1.87875828       1.34307804       0.00000000
Si      -1.93870548      -0.84380571       1.11337942       0.00000000
Si       0.14454117       0.53916642      -2.41005839       0.00000000
Si       1.85663646      -1.64312343       0.11206388       0.00000000
Si       2.10499380       1.73495016      -1.77689776       0.00000000
Si       2.08094976       0.62415135       2.70396852       0.00000000
Si      -0.66179754      -2.09279259       2.70818614       0.00000000
Si       0.75207672      -3.34752984       1.35223690       0.00000000
Si      -2.77946496      -2.57621463      -0.24942143       0.00000000
Si       1.68176331       3.45767844      -0.10390647       0.00000000
