10
Lattice="16.28999089631971 0.0 0.0 0.0 16.28999089631971 0.0 0.0 0.0 34.45770212530097" Properties=species:S:1:pos:R:3:initial_magmoms:R:1 pbc="T T T"
Si       1.19505069       1.70499285       1.08987843       0.00000000
Si      -1.75944055      -1.12479192       1.18406172       0.00000000
Si      -0.54348327       1.06618050      -2.11836427       0.00000000
Si       1.69393194      -1.83694185      -0.08244802       0.00000000
Si      -1.92880605      -0.91271241      -2.77123472       0.00000000
Si       2.41150644       0.23270265       2.56456209       0.00000000
Si      -1.14386751      -2.92286583      -1.73529778       0.00000000
Si      -0.31815999      -2.50044984       2.56157805       0.00000000
Si       1.29534822      -2.64596841      -2.25626407       0.00000000
Si       3.00596112       2.45612475      -0.38793196       0.00000000
