10
Lattice="16.28999089631971 0.0 0.0 0.0 16.28999089631971 0.0 0.0 0.0 34.45770212530097" Properties=species:S:1:pos:R:3:initial_magmoms:R:1 pbc="T T T"
Si      -1.34223084      -1.38114765      -1.28685806       0.00000000
Si       1.55999556       1.29073815      -1.14995754       0.00000000
Si      -0.11445354      -0.25633944       2.31848778       0.00000000
Si      -2.59377525       0.02565675      -2.64228699       0.00000000
Si       0.14309136       2.71491651      -2.61158516       0.00000000
Si       0.12610089      -2.71686249      -2.62281838       0.00000000
Si      -2.40995889      -0.21025503       2.93876123       0.00000000
Si       2.82932865      -0.00405621      -2.64500915       0.00000000
Si      -3.24939888      -2.14159743       0.04727599       0.00000000
Si       0.11020185      -2.52750753       2.99285985       0.00000000
