10
Lattice="16.28999089631971 0.0 0.0 0.0 16.28999089631971 0.0 0.0 0.0 34.45770212530097" Properties=species:S:1:pos:R:3:initial_magmoms:R:1 pbc="T T T"
Si       1.35394944      -1.35739683      -1.35384387       0.00000000
Si       1.35477860       1.35739683       1.35711736       0.00000000
Si      -1.36014605      -1.35684297       1.35722073       0.00000000
Si      -1.36109087       1.35752715      -1.36152794       0.00000000
Si       2.69361135      -0.00487071      -2.72555407       0.00000000
Si       2.71069956      -2.71441899      -0.00058578       0.00000000
Si       0.01831375      -2.71878471      -2.70700893       0.00000000
Si       2.71234485       0.00030951       2.71423471       0.00000000
Si       2.71359918       2.71508688      -0.00020675       0.00000000
Si      -0.00278200      -2.71500543       2.71416580       0.00000000
