10
Lattice="16.28999089631971 0.0 0.0 0.0 16.28999089631971 0.0 0.0 0.0 34.45770212530097" Properties=species:S:1:pos:R:3:initial_magmoms:R:1 pbc="T T T"
Si       1.75102839      -1.32468651       0.86547459       0.00000000
Si      -1.52524899      -1.61300322      -0.86158087       0.00000000
Si       0.61313931       1.34498385      -1.90334116       0.00000000
Si      -0.91548171       1.20979314       1.97608141       0.00000000
Si      -3.10182777      -0.06669126      -1.73856433       0.00000000
Si      -1.55310489       1.15825158      -3.04719967       0.00000000
Si      -2.03885640      -2.84957712       1.03448971       0.00000000
Si       1.04497092       2.40557688       2.60924204       0.00000000
Si       2.97584091       0.87943194       2.21294378       0.00000000
Si      -2.85465960       2.28454218       1.17648998       0.00000000
