10
Lattice="16.28999089631971 0.0 0.0 0.0 16.28999089631971 0.0 0.0 0.0 34.45770212530097" Properties=species:S:1:pos:R:3:initial_magmoms:R:1 pbc="T T T"
Si       1.44016632       0.92367558      -1.65683062       0.00000000
Si      -1.96045263      -1.19578374      -0.63316063       0.00000000
Si      -0.42323049       1.72272828       1.67299129       0.00000000
Si       1.93086999      -1.52614494      -0.39629825       0.00000000
Si      -2.10499380      -1.73495016       1.77689776       0.00000000
Si       1.68772545       2.91709495      -0.26770204       0.00000000
Si      -1.49796324       0.14380812       3.11997580       0.00000000
Si      -1.04497092      -2.40557688      -2.60924204       0.00000000
Si       0.08110791       1.14271092      -3.62347061       0.00000000
Si      -0.24835734      -3.37807359       1.88896164       0.00000000
