10
Lattice="16.28999089631971 0.0 0.0 0.0 16.28999089631971 0.0 0.0 0.0 34.45770212530097" Properties=species:S:1:pos:R:3:initial_magmoms:R:1 pbc="T T T"
Si       1.84103783       0.89315789       1.19329949       0.00000000
Si      -0.88829370      -1.92043529       1.09873372       0.00000000
Si      -1.90822689       1.41362991      -0.22410651       0.00000000
Si       1.36801206       0.22985516      -1.95312606       0.00000000
Si       0.41718690       2.15474346       2.59612502       0.00000000
Si      -2.32060824      -0.57917303       2.57363101       0.00000000
Si      -0.16622316      -0.25279799      -3.65047895       0.00000000
Si      -1.00087389       3.34456506       1.21027336       0.00000000
Si      -3.72149937       0.71240894       1.18985372       0.00000000
Si       3.28594454      -1.27799027      -1.91563606       0.00000000
