10
Lattice="16.28999089631971 0.0 0.0 0.0 16.28999089631971 0.0 0.0 0.0 34.45770212530097" Properties=species:S:1:pos:R:3:initial_magmoms:R:1 pbc="T T T"
Si      -1.35519768      -1.35892801      -1.35739302       0.00000000
Si      -1.35707103       1.35734470       1.35746193       0.00000000
Si       1.35806472      -1.35745345       1.35732410       0.00000000
Si       1.35887922       1.35894112      -1.35835783       0.00000000
Si       0.00003258      -2.71389186      -2.71237400       0.00000000
Si      -0.00070047       2.71379671       2.71440700       0.00000000
Si       2.71347417      -0.00051476       2.71509616       0.00000000
Si      -2.71456560      -2.71480410       0.00006892       0.00000000
Si      -2.71472850       2.71485556      -0.00010337       0.00000000
Si      -2.71560816      -0.00113541       2.71471712       0.00000000
