10
Lattice="16.28999089631971 0.0 0.0 0.0 16.28999089631971 0.0 0.0 0.0 34.45770212530097" Properties=species:S:1:pos:R:3:initial_magmoms:R:1 pbc="T T T"
Si      -1.35540945      -1.35693869      -1.35777205       0.00000000
Si       1.35868862      -1.35345532       1.35942602       0.00000000
Si      -1.35483930       1.35963508       1.35973614       0.00000000
Si       1.35940030       1.35776173      -1.35787543       0.00000000
Si      -2.71287144      -2.71520158      -0.00044795       0.00000000
Si      -2.71417464       2.71431148      -0.00068915       0.00000000
Si      -2.71347417       0.00051476      -2.71509616       0.00000000
Si       0.00211770      -2.71466401      -2.71499278       0.00000000
Si       0.00203625       2.71592419      -2.71482049       0.00000000
Si       2.71677682       2.71450696      -0.00017229       0.00000000
