10
Lattice="16.28999089631971 0.0 0.0 0.0 16.28999089631971 0.0 0.0 0.0 34.45770212530097" Properties=species:S:1:pos:R:3:initial_magmoms:R:1 pbc="T T T"
Si      -0.05608647       2.33381291      -0.25677894       0.00000000
Si      -2.30208651      -0.49016773       0.26718517       0.00000000
Si       0.79408863      -0.73209215       2.14140955       0.00000000
Si       0.93351474      -1.54810127      -1.68918642       0.00000000
Si      -2.12323860      -2.80551008       0.17325342       0.00000000
Si      -1.76228478       2.23289636      -2.13438018       0.00000000
Si      -2.77259058       0.37463090       2.38492227       0.00000000
Si       2.38285233      -0.06530009      -2.81464451       0.00000000
Si       2.18952261       3.04775474      -0.06126583       0.00000000
Si      -1.14341139      -0.90592111       3.50624544       0.00000000
