10
Lattice="16.28999089631971 0.0 0.0 0.0 16.28999089631971 0.0 0.0 0.0 34.45770212530097" Properties=species:S:1:pos:R:3:initial_magmoms:R:1 pbc="T T T"
Si       1.35715248       1.35764118       1.38469043       0.00000000
Si      -1.35993807      -1.35495333       1.38613765       0.00000000
Si       1.31849631      -1.52884908      -1.34664221       0.00000000
Si      -1.24067898       1.55312118      -1.43874081       0.00000000
Si       2.71586746      -0.15886008      -2.68113808       0.00000000
Si      -2.71423980      -2.70427032       0.00431755       0.00000000
Si      -2.70505224       2.72134224       0.01867953       0.00000000
Si       2.70299970       2.73491181       0.02283513       0.00000000
Si       2.73655710      -2.71867068       0.03920944       0.00000000
Si       0.00146610      -2.71319724       2.74480560       0.00000000
