10
Lattice="16.28999089631971 0.0 0.0 0.0 16.28999089631971 0.0 0.0 0.0 34.45770212530097" Properties=species:S:1:pos:R:3:initial_magmoms:R:1 pbc="T T T"
Si       2.27067843      -0.08816148       0.59225932       0.00000000
Si      -1.51148394      -0.61887339       1.70999888       0.00000000
Si      -0.11613141      -2.07104544      -1.22001008       0.00000000
Si      -0.67018689       2.20226139      -0.73484537       0.00000000
Si      -3.20207643      -1.31572701       0.22907493       0.00000000
Si       3.37549067      -0.39420171      -1.48016588       0.00000000
Si       2.39011671       1.63750338      -2.39605211       0.00000000
Si       1.11241152      -3.58945263       0.23148697       0.00000000
Si       2.69290383      -2.26654173       1.40136107       0.00000000
Si      -1.82193876       1.16085798       3.25932141       0.00000000
