10
Lattice="16.28999089631971 0.0 0.0 0.0 16.28999089631971 0.0 0.0 0.0 34.45770212530097" Properties=species:S:1:pos:R:3:initial_magmoms:R:1 pbc="T T T"
Si      -1.41270531       1.27024533       1.34392005       0.00000000
Si       1.32833873       1.36044306      -1.36742022       0.00000000
Si      -1.38722476      -1.35402480      -1.35680724       0.00000000
Si       1.42756112      -1.36041048       1.47926998       0.00000000
Si      -2.17765113      -0.54454212       2.75530832       0.00000000
Si      -0.43166708      -2.23260966       2.76278564       0.00000000
Si       2.68355270       2.70800073       0.00995828       0.00000000
Si       2.68298255       0.00480555      -2.72288360       0.00000000
Si       2.70130880      -2.72271060       0.00320457       0.00000000
Si      -0.03073108      -2.71120986      -2.72209107       0.00000000
