10
Lattice="16.28999089631971 0.0 0.0 0.0 16.28999089631971 0.0 0.0 0.0 34.45770212530097" Properties=species:S:1:pos:R:3:initial_magmoms:R:1 pbc="T T T"
Si       0.84618405      -1.51941717      -1.54711723       0.00000000
Si       0.64594737       2.15177868      -0.66813522       0.00000000
Si      -2.40823215      -0.42306759      -0.10847291       0.00000000
Si       1.88877529      -0.30848373       1.61147533       0.00000000
Si      -0.77680494       2.96349309       1.22183634       0.00000000
Si       0.49140414      -1.67847273       2.94597120       0.00000000
Si       2.97411647       1.43335710      -1.01953506       0.00000000
Si       0.94848525      -0.38490012      -3.58077749       0.00000000
Si      -2.06777115       1.40349753       2.85387260       0.00000000
Si       3.75905501      -0.57679632       0.01640188       0.00000000
