10
Lattice="16.28999089631971 0.0 0.0 0.0 16.28999089631971 0.0 0.0 0.0 34.45770212530097" Properties=species:S:1:pos:R:3:initial_magmoms:R:1 pbc="T T T"
Si      -1.35664749      -1.35814617       1.35749639       0.00000000
Si       1.35865116       1.35676152       1.35753085       0.00000000
Si      -1.35912357       1.35821133      -1.35656603       0.00000000
Si       1.35765747      -1.35842310      -1.36090771       0.00000000
Si       0.01435149       2.69847108      -2.71358691       0.00000000
Si       2.70350469       0.01884753      -2.72276300       0.00000000
Si      -2.71347417       2.71448415       0.00037903       0.00000000
Si      -2.71383255      -0.00078192       2.71499278       0.00000000
Si       0.00079821       2.71428867       2.71475158       0.00000000
Si      -2.71305063      -2.71666701      -0.00003446       0.00000000
