10
Lattice="16.28999089631971 0.0 0.0 0.0 16.28999089631971 0.0 0.0 0.0 34.45770212530097" Properties=species:S:1:pos:R:3:initial_magmoms:R:1 pbc="T T T"
Si       1.64051703      -1.48449141       0.74862845       0.00000000
Si      -0.64769040      -1.09351512      -1.97453081       0.00000000
Si       1.18842066       1.55546694      -1.31118521       0.00000000
Si      -1.55670498       0.67652370       1.65934603       0.00000000
Si       0.70993449      -3.35481147      -0.55949002       0.00000000
Si      -0.78319062       2.42747064      -2.41186821       0.00000000
Si       2.69226459       2.77871562       0.06826075       0.00000000
Si      -1.35715248       0.44188254      -3.62967300       0.00000000
Si      -3.30773337       2.00121021       0.79387144       0.00000000
Si       3.60457368      -1.59283620      -0.58833113       0.00000000
