10
Lattice="16.28999089631971 0.0 0.0 0.0 16.28999089631971 0.0 0.0 0.0 34.45770212530097" Properties=species:S:1:pos:R:3:initial_magmoms:R:1 pbc="T T T"
Si      -1.10481224       0.30604023       2.07242519       0.00000000
Si       2.11753710      -0.76043349       0.86681844       0.00000000
Si      -0.98537396       2.03170509      -0.91588623       0.00000000
Si      -0.34627164      -1.90589742      -2.24940005       0.00000000
Si      -0.68258684      -1.87234002       2.88152695       0.00000000
Si       3.12825015       1.32457248       0.98487059       0.00000000
Si       2.91952638       1.69782525      -1.36852286       0.00000000
Si      -3.37549067       0.39420171       1.48016588       0.00000000
Si       1.64494791      -2.19875904       2.68732323       0.00000000
Si      -3.49162208      -1.67684373       0.26015580       0.00000000
