10
Lattice="16.28999089631971 0.0 0.0 0.0 16.28999089631971 0.0 0.0 0.0 34.45770212530097" Properties=species:S:1:pos:R:3:initial_magmoms:R:1 pbc="T T T"
Si       1.35697329      -1.35428544       1.35739302       0.00000000
Si      -1.35778779      -1.35672894      -1.35742748       0.00000000
Si       1.35746199       1.35826290      -1.35732410       0.00000000
Si      -1.35941679       1.35838015       1.36066650       0.00000000
Si       2.70184311      -0.00850338       2.71058219       0.00000000
Si       2.71370223      -2.71397916       0.00044795       0.00000000
Si       2.71287144       2.71520158       0.00044795       0.00000000
Si       0.00013032      -2.71441899      -2.71451038       0.00000000
Si       2.71498914       0.00053757      -2.71454483       0.00000000
Si      -2.71516833       0.00091224      -2.71457929       0.00000000
