10
Lattice="16.28999089631971 0.0 0.0 0.0 16.28999089631971 0.0 0.0 0.0 34.45770212530097" Properties=species:S:1:pos:R:3:initial_magmoms:R:1 pbc="T T T"
Si       1.21296969       1.06513794       1.64146247       0.00000000
Si       1.42654611      -0.78553638      -1.78983742       0.00000000
Si       0.02388114      -2.36635056       0.58781427       0.00000000
Si      -1.37912769       2.07967914      -0.18951747       0.00000000
Si      -2.68128513      -1.55116638      -0.68629444       0.00000000
Si      -2.90594052       0.72000171      -1.36066650       0.00000000
Si      -0.52269723       0.77198310       3.26038960       0.00000000
Si      -0.84093867      -2.91801141      -1.56065912       0.00000000
Si      -2.13379452      -2.19020679       1.60741824       0.00000000
Si       0.07020990       3.56248032      -1.31497556       0.00000000
