10
Lattice="16.28999089631971 0.0 0.0 0.0 16.28999089631971 0.0 0.0 0.0 34.45770212530097" Properties=species:S:1:pos:R:3:initial_magmoms:R:1 pbc="T T T"
Si      -1.52681283      -1.35967743      -1.17114903       0.00000000
Si       1.44933759       1.48280118      -1.12545810       0.00000000
Si      -0.93351474       1.54810127       1.68918642       0.00000000
Si       1.37912769      -2.07967914       0.18951747       0.00000000
Si       2.59209738      -1.01454120       1.83097994       0.00000000
Si       0.85643046      -1.30769604       3.44990706       0.00000000
Si       3.18953706       1.33400832       1.54728952       0.00000000
Si      -3.05675334      -1.25740881       1.86243984       0.00000000
Si      -1.30215744      -3.63084552      -0.49677697       0.00000000
Si      -0.13942611       0.81600912       3.83059597       0.00000000
