10
Lattice="16.28999089631971 0.0 0.0 0.0 16.28999089631971 0.0 0.0 0.0 34.45770212530097" Properties=species:S:1:pos:R:3:initial_magmoms:R:1 pbc="T T T"
Si      -0.72293391      -1.42454421       1.70072975       0.00000000
Si       1.73384244      -0.72423711      -1.43002990       0.00000000
Si       1.24621758       1.61098326       1.29743658       0.00000000
Si      -1.77047865       0.17616006      -1.64728583       0.00000000
Si      -1.68181218       2.53499671      -1.62719698       0.00000000
Si       1.25154441       0.58512051      -3.37272177       0.00000000
Si      -0.56073438       2.69444486       2.40370173       0.00000000
Si      -1.29689577      -3.41013231       0.48292497       0.00000000
Si       3.55076292       0.66160206      -0.87949888       0.00000000
Si       1.24867737      -2.29654791       2.80141275       0.00000000
