10
Lattice="16.28999089631971 0.0 0.0 0.0 16.28999089631971 0.0 0.0 0.0 34.45770212530097" Properties=species:S:1:pos:R:3:initial_magmoms:R:1 pbc="T T T"
Si      -0.31512028      -0.23512986       2.29550448       0.00000000
Si       2.32753475      -0.32641902      -0.19420372       0.00000000
Si      -0.42222540       2.17838025      -0.80910176       0.00000000
Si      -1.58049231      -1.32291090      -1.16987410       0.00000000
Si       0.68258684       1.87234002      -2.88152695       0.00000000
Si      -2.82923484      -2.09829861       0.69022262       0.00000000
Si       1.18231517       1.29323052       3.15236464       0.00000000
Si       2.80012394       1.11190653      -2.01470851       0.00000000
Si       3.11528657       0.55213326       1.92201724       0.00000000
Si      -2.69290383       2.26654173      -1.40136107       0.00000000
