10
Lattice="16.28999089631971 0.0 0.0 0.0 16.28999089631971 0.0 0.0 0.0 34.45770212530097" Properties=species:S:1:pos:R:3:initial_magmoms:R:1 pbc="T T T"
Si      -0.05135097       2.30591466       0.42517382       0.00000000
Si       1.70725390      -1.16932878       1.15409246       0.00000000
Si      -2.17220049      -0.92734083       0.32476402       0.00000000
Si       0.67614577       0.33387984      -2.29502207       0.00000000
Si       2.16088153       2.23220241       1.34016416       0.00000000
Si      -2.80418733      -0.68514111      -1.94165814       0.00000000
Si       3.47752078       0.30579588       0.89407450       0.00000000
Si      -1.54387188      -3.21098706       0.59157016       0.00000000
Si      -0.90498280      -1.33952670      -3.25108601       0.00000000
Si      -1.21410510       3.07706697      -1.51358987       0.00000000
