10
Lattice="16.28999089631971 0.0 0.0 0.0 16.28999089631971 0.0 0.0 0.0 34.45770212530097" Properties=species:S:1:pos:R:3:initial_magmoms:R:1 pbc="T T T"
Si      -1.53039663      -0.21401802       1.82188310       0.00000000
Si      -1.59992235       0.81153522      -1.60759053       0.00000000
Si       1.03936716      -2.24037999      -0.08118239       0.00000000
Si       1.72594179       1.57928292       1.06574286       0.00000000
Si      -2.36434689       2.78739819      -0.52865036       0.00000000
Si      -2.41902265       2.13348501       2.03238532       0.00000000
Si      -2.91571941      -2.19291093       1.16901266       0.00000000
Si       3.81967920       0.23193702       0.45008676       0.00000000
Si       3.37391964      -1.98884610      -0.26966613       0.00000000
Si       0.63335520      -3.24201951      -2.16756296       0.00000000
