10
Lattice="16.28999089631971 0.0 0.0 0.0 16.28999089631971 0.0 0.0 0.0 34.45770212530097" Properties=species:S:1:pos:R:3:initial_magmoms:R:1 pbc="T T T"
Si       0.60805683      -1.06016949      -1.93707527       0.00000000
Si      -1.97930016      -0.99383661       0.87474372       0.00000000
Si      -1.04791941       2.19312270      -0.05389188       0.00000000
Si       2.16821529      -0.25945083       1.69773193       0.00000000
Si       1.65157794       2.07216945       2.05960692       0.00000000
Si      -0.70534071       2.35320453       2.31924585       0.00000000
Si       1.49907096       0.73055763      -3.12476401       0.00000000
Si       1.67697405      -2.54433510       2.30025965       0.00000000
Si      -1.25087652      -1.89078030      -3.07748801       0.00000000
Si      -1.77639192      -1.14033258       3.21118397       0.00000000
