10
Lattice="16.28999089631971 0.0 0.0 0.0 16.28999089631971 0.0 0.0 0.0 34.40246978574605" Properties=species:S:1:pos:R:3:initial_magmoms:R:1 pbc="T T T"
Si       0.57210480      -2.26171079       0.50062502       0.00000000
Si       2.06975853       1.22606685       0.02277445       0.00000000
Si      -1.21881780       0.77419854       1.94841937       0.00000000
Si      -1.01657745       0.51829893      -2.26409661       0.00000000
Si       2.31666606       1.42674336       2.39431003       0.00000000
Si       0.37188441       0.66018483       3.67157124       0.00000000
Si      -0.95838957      -3.62919113      -0.67824507       0.00000000
Si       2.86646985      -2.63063042       0.04310632       0.00000000
Si      -1.82249262       2.86529697      -2.00422020       0.00000000
Si       1.90788480       3.09586563      -1.66848631       0.00000000
