10
Lattice="16.28999089631971 0.0 0.0 0.0 16.28999089631971 0.0 0.0 0.0 34.40246978574605" Properties=species:S:1:pos:R:3:initial_magmoms:R:1 pbc="T T T"
Si      -1.35575154      -1.35495333      -1.35710939       0.00000000
Si      -1.35799956       1.35749457       1.35717819       0.00000000
Si       1.35731538      -1.35795069       1.35762542       0.00000000
Si       1.35940050       1.35938421      -1.35728140       0.00000000
Si       0.00107514       2.71015101      -2.71545726       0.00000000
Si      -0.00017919       2.71500543       2.71425318       0.00000000
Si       2.71450044      -2.71514715       0.00000000       0.00000000
Si       2.71507059       2.71484253       0.00030962       0.00000000
Si       2.71458189      -0.00052128       2.71542286       0.00000000
Si       0.00013032      -2.71576129      -2.71425318       0.00000000
