10
Lattice="16.28999089631971 0.0 0.0 0.0 16.28999089631971 0.0 0.0 0.0 34.40246978574605" Properties=species:S:1:pos:R:3:initial_magmoms:R:1 pbc="T T T"
Si       0.15143184      -2.34299070      -0.32988547       0.00000000
Si      -0.36157284      -0.29530512       2.36558395       0.00000000
Si       1.99943460       1.29992571      -0.35950601       0.00000000
Si      -1.92098196       0.77903667      -1.26422267       0.00000000
Si      -0.42132456       1.92549429       3.13306908       0.00000000
Si       3.29869242       0.71638533       1.52303259       0.00000000
Si      -0.09547569      -2.54366721      -2.70142105       0.00000000
Si      -1.79334981      -3.10954923       0.94737574       0.00000000
Si      -2.50009146      -1.37595114       2.46208293       0.00000000
Si       1.18941435       3.59795601      -0.39700472       0.00000000
