10
Lattice="16.28999089631971 0.0 0.0 0.0 16.28999089631971 0.0 0.0 0.0 34.40246978574605" Properties=species:S:1:pos:R:3:initial_magmoms:R:1 pbc="T T T"
Si       1.49832162      -0.12017133       1.78868861       0.00000000
Si      -2.11911723       0.37673883       0.92253715       0.00000000
Si       0.05975172      -2.22079941      -0.76748513       0.00000000
Si       0.78983694       1.93976433      -1.28689391       0.00000000
Si       3.42339237      -0.08967645       0.44231280       0.00000000
Si      -1.30797297       1.92508704       2.59725031       0.00000000
Si       1.05722100       1.91218536       2.89693039       0.00000000
Si       2.98273158       2.16005400      -0.22440744       0.00000000
Si       0.42132456      -1.92549429      -3.13306908       0.00000000
Si      -3.57669756       0.50619546      -1.00321098       0.00000000
