10
Lattice="16.28999089631971 0.0 0.0 0.0 16.28999089631971 0.0 0.0 0.0 34.40246978574605" Properties=species:S:1:pos:R:3:initial_magmoms:R:1 pbc="T T T"
Si       0.13729212       0.58254669       2.26546862       0.00000000
Si      -1.20251151      -2.02792581       0.15143976       0.00000000
Si      -1.77836301       1.46261394      -0.64470264       0.00000000
Si       2.39179554      -0.25182711      -0.30941599       0.00000000
Si       2.05801344      -0.96945048       2.15379917       0.00000000
Si      -1.13321385       1.20370068      -3.05803725       0.00000000
Si       2.50996320       1.92775860      -1.49750594       0.00000000
Si      -2.25432423      -2.14736409      -1.95554068       0.00000000
Si      -2.90836773      -1.48667427       1.82587770       0.00000000
Si      -3.67249905       0.49710564       0.80467422       0.00000000
