10
Lattice="16.28999089631971 0.0 0.0 0.0 16.28999089631971 0.0 0.0 0.0 34.40246978574605" Properties=species:S:1:pos:R:3:initial_magmoms:R:1 pbc="T T T"
Si      -1.18210014      -1.34827443      -1.48731046       0.00000000
Si      -1.42084638       1.26109035       1.42866656       0.00000000
Si       1.28340765      -1.44555831       1.41118666       0.00000000
Si       1.07297343       1.57297869      -1.59433661       0.00000000
Si      -2.56584116      -2.67201612       0.10010780       0.00000000
Si      -2.75005174       2.56603338       0.00493332       0.00000000
Si       2.67703344       2.68004709      -0.06531657       0.00000000
Si       0.63776979      -1.69531659      -3.35027405       0.00000000
Si      -0.07718202       2.62457964       2.79371604       0.00000000
Si       2.63585232      -0.09337428       2.78948454       0.00000000
