10
Lattice="16.28999089631971 0.0 0.0 0.0 16.28999089631971 0.0 0.0 0.0 34.40246978574605" Properties=species:S:1:pos:R:3:initial_magmoms:R:1 pbc="T T T"
Si      -1.35348723       1.35259128       1.35968957       0.00000000
Si       1.35795069       1.35654975      -1.35587090       0.00000000
Si      -1.35695700      -1.35812988      -1.35614612       0.00000000
Si       1.35674523      -1.35948195       1.36165052       0.00000000
Si      -0.00447975      -2.70741429       2.70864557       0.00000000
Si       2.71261080       2.71467963       0.00333704       0.00000000
Si       2.71476108      -0.00021177      -2.71315230       0.00000000
Si      -2.71489140      -0.00021177      -2.71308349       0.00000000
Si      -0.00022806       2.71484253      -2.71318670       0.00000000
Si       0.00055386      -2.71528236      -2.71298028       0.00000000
