10
Lattice="16.28999089631971 0.0 0.0 0.0 16.28999089631971 0.0 0.0 0.0 34.40246978574605" Properties=species:S:1:pos:R:3:initial_magmoms:R:1 pbc="T T T"
Si      -1.73807784      -1.31277852      -0.95711165       0.00000000
Si       0.45493083       1.78292421      -1.52310140       0.00000000
Si      -0.96272271       1.29932298       1.75813920       0.00000000
Si       1.85629437      -1.67405814       0.15797623       0.00000000
Si       2.78945073       2.02256640      -1.28713472       0.00000000
Si       0.42689574       0.84580938      -3.68099752       0.00000000
Si      -3.24337158       0.27885222      -2.00336014       0.00000000
Si      -1.81421730      -0.08081469       3.44702619       0.00000000
Si       2.67719634      -1.94136075      -2.08520366       0.00000000
Si      -1.03231359      -2.45306223      -2.89617354       0.00000000
