10
Lattice="16.28999089631971 0.0 0.0 0.0 16.28999089631971 0.0 0.0 0.0 34.40246978574605" Properties=species:S:1:pos:R:3:initial_magmoms:R:1 pbc="T T T"
Si      -1.35480672       1.35713434       1.36213215       0.00000000
Si       1.36197432      -1.35889551       1.36123769       0.00000000
Si      -1.35298224      -1.37257911      -1.36862734       0.00000000
Si       1.39271355       1.35832100      -1.35671720       0.00000000
Si      -2.71142163       2.71218793       0.00488515       0.00000000
Si       2.71640637       2.70937302       0.00409390       0.00000000
Si      -2.70977634      -2.71661814       0.00574522       0.00000000
Si      -2.71158453      -0.00221544       2.71900072       0.00000000
Si       0.00294849       2.71280206       2.71913833       0.00000000
Si       2.71865439      -2.71495656       0.00127289       0.00000000
