10
Lattice="16.28999089631971 0.0 0.0 0.0 16.28999089631971 0.0 0.0 0.0 34.40246978574605" Properties=species:S:1:pos:R:3:initial_magmoms:R:1 pbc="T T T"
Si      -0.20743686       0.68893572      -2.25758254       0.00000000
Si       0.89021592       1.86454755       1.21334448       0.00000000
Si       1.67601294      -1.71532071      -0.02468162       0.00000000
Si      -1.99889703      -0.88441668       1.25818125       0.00000000
Si       2.11444200       0.47348078       2.65267926       0.00000000
Si      -0.63125379      -2.25741933       2.64076911       0.00000000
Si      -1.36078515       2.70136160      -1.95800566       0.00000000
Si       3.49586658      -0.86429853       1.22723965       0.00000000
Si       0.76616757      -3.54599091       1.15610906       0.00000000
Si       3.10757814      -1.58765598      -1.90495702       0.00000000
