10
Lattice="16.28999089631971 0.0 0.0 0.0 16.28999089631971 0.0 0.0 0.0 34.40246978574605" Properties=species:S:1:pos:R:3:initial_magmoms:R:1 pbc="T T T"
Si       1.35374787      -1.35176049       1.35497643       0.00000000
Si      -1.35806472      -1.35584928      -1.35772863       0.00000000
Si       1.35633798       1.35825033      -1.35769423       0.00000000
Si      -1.35690813       1.36047564       1.36075605       0.00000000
Si       2.69410536       0.00669519       2.70991846       0.00000000
Si       2.71151937      -2.71417464       0.00175453       0.00000000
Si      -0.00131949      -2.71401174      -2.71476921       0.00000000
Si       2.71427238       0.00130320      -2.71507884       0.00000000
Si      -2.71542897      -2.71406061       0.00196094       0.00000000
Si       2.71453302       2.71573101       0.00027522       0.00000000
