10
Lattice="16.28999089631971 0.0 0.0 0.0 16.28999089631971 0.0 0.0 0.0 34.40246978574605" Properties=species:S:1:pos:R:3:initial_magmoms:R:1 pbc="T T T"
Si       1.34146521       1.36304946      -1.36460913       0.00000000
Si      -1.49421654       1.21906215       1.34857757       0.00000000
Si      -1.36686132      -1.36145304      -1.36147850       0.00000000
Si       1.59223347      -1.18162773       1.35181140       0.00000000
Si       0.13300785      -2.62148454       2.46875701       0.00000000
Si       2.68182270       2.72150514      -0.00966710       0.00000000
Si       2.69923671       0.00063531      -2.71783103       0.00000000
Si       2.71246419      -2.70826137      -0.00285541       0.00000000
Si      -0.01228266       2.71480995      -2.71958556       0.00000000
Si      -0.01337409      -2.71404432      -2.72116808       0.00000000
