10
Lattice="16.28999089631971 0.0 0.0 0.0 16.28999089631971 0.0 0.0 0.0 34.40246978574605" Properties=species:S:1:pos:R:3:initial_magmoms:R:1 pbc="T T T"
Si      -2.22542577       0.01607823       0.57992276       0.00000000
Si       1.12208778       0.73122945      -1.87820389       0.00000000
Si       0.96443316       0.62771464       2.03931074       0.00000000
Si       0.69243903      -2.23552557      -0.36635211       0.00000000
Si       3.19621203       0.25743087      -0.74481389       0.00000000
Si      -0.09990657      -2.93855310       1.72979155       0.00000000
Si      -2.39533047      -2.12095800       1.67254581       0.00000000
Si       3.06330192       1.35544922       1.34668543       0.00000000
Si       1.17457416      -1.50073254       3.09488231       0.00000000
Si       0.53779806      -0.81174699      -3.60228462       0.00000000
