10
Lattice="16.28999089631971 0.0 0.0 0.0 16.28999089631971 0.0 0.0 0.0 34.40246978574605" Properties=species:S:1:pos:R:3:initial_magmoms:R:1 pbc="T T T"
Si       1.57218048      -0.63544032       1.62469195       0.00000000
Si      -1.79079228      -1.55787786       0.14497209       0.00000000
Si      -0.39956112       2.35465990       0.00657088       0.00000000
Si       1.22611572      -0.37480032      -2.04698250       0.00000000
Si      -0.29975229      -1.79150904      -3.14899743       0.00000000
Si      -1.15124688      -3.17164671      -1.46011044       0.00000000
Si      -3.43253106      -0.79708599      -1.38404654       0.00000000
Si       1.17051795       3.37592887      -1.41452714       0.00000000
Si       1.39602042       1.76223591      -3.13960555       0.00000000
Si      -1.99168056       3.12748356      -1.55354760       0.00000000
