10
Lattice="16.28999089631971 0.0 0.0 0.0 16.28999089631971 0.0 0.0 0.0 34.40246978574605" Properties=species:S:1:pos:R:3:initial_magmoms:R:1 pbc="T T T"
Si       0.79234560       0.70302753      -2.09614366       0.00000000
Si       0.73392966      -2.22000120       0.29063223       0.00000000
Si       1.27448073       1.43782056       1.36509076       0.00000000
Si      -2.29542390       0.81759510      -0.05724574       0.00000000
Si       0.09990657       2.93855310      -1.72979155       0.00000000
Si       1.06433973       3.56626774       0.30951919       0.00000000
Si       0.21571218       1.58115627       3.46422744       0.00000000
Si      -2.12551920       2.95463133      -1.14986879       0.00000000
Si      -0.73489077      -3.60007371       1.42440066       0.00000000
Si       1.19061981      -3.35220507      -1.69693717       0.00000000
