10
Lattice="16.28999089631971 0.0 0.0 0.0 16.28999089631971 0.0 0.0 0.0 34.40246978574605" Properties=species:S:1:pos:R:3:initial_magmoms:R:1 pbc="T T T"
Si       1.35663120      -1.35651554      -1.36292341       0.00000000
Si      -1.35892809       1.35824391      -1.36264819       0.00000000
Si       1.32639696       1.39416336       1.36110008       0.00000000
Si      -1.35997065      -1.34736871       1.40375916       0.00000000
Si       2.80518687       0.12528639       2.60832791       0.00000000
Si      -2.71480995      -2.71177091      -0.00244258       0.00000000
Si       2.71389771      -2.71291100      -0.00705251       0.00000000
Si       2.71217097       2.71811682      -0.00502276       0.00000000
Si      -2.71453302       2.71645524      -0.00313063       0.00000000
Si      -0.00156384      -2.71399622      -2.72089286       0.00000000
