10
Lattice="16.28999089631971 0.0 0.0 0.0 16.28999089631971 0.0 0.0 0.0 34.40246978574605" Properties=species:S:1:pos:R:3:initial_magmoms:R:1 pbc="T T T"
Si      -1.47878991       1.26887697      -1.24722784       0.00000000
Si      -1.40222691      -0.35455185       1.81242633       0.00000000
Si       1.27793421      -1.50189076      -1.24874155       0.00000000
Si       1.68930558       0.86731218       1.39103024       0.00000000
Si      -1.36389654      -2.62980547       2.12480093       0.00000000
Si      -0.09301590       2.59283043      -2.61335068       0.00000000
Si       2.62192437      -0.12443931      -2.61462357       0.00000000
Si       2.69791722       2.66085747       0.20311230       0.00000000
Si      -2.80518687      -0.12528639      -2.60832791       0.00000000
Si       2.70304857      -2.74083192       0.27841934       0.00000000
