10
Lattice="16.28999089631971 0.0 0.0 0.0 16.28999089631971 0.0 0.0 0.0 34.40246978574605" Properties=species:S:1:pos:R:3:initial_magmoms:R:1 pbc="T T T"
Si       1.35829278       1.35656604       1.35748781       0.00000000
Si      -1.35682668      -1.35783666       1.35800385       0.00000000
Si      -1.35835794       1.35809730      -1.35652454       0.00000000
Si       1.36192545      -1.36347300      -1.35889832       0.00000000
Si      -2.71666701       0.01013238      -2.69533869       0.00000000
Si      -2.71238274       2.71326240       0.00061924       0.00000000
Si      -2.71365336      -2.71500543       0.00092887       0.00000000
Si       0.00063531       2.71438641       2.71549167       0.00000000
Si      -2.71425609      -0.00055386       2.71566368       0.00000000
Si       2.71578735      -0.00091224       2.71507884       0.00000000
