10
Lattice="16.28999089631971 0.0 0.0 0.0 16.28999089631971 0.0 0.0 0.0 34.40246978574605" Properties=species:S:1:pos:R:3:initial_magmoms:R:1 pbc="T T T"
Si       1.30823361       0.40229784       1.92223907       0.00000000
Si      -1.12901103       1.41196833      -1.53548629       0.00000000
Si      -1.54266300      -1.17832086       1.45618855       0.00000000
Si       1.55696562      -1.29790575      -1.49981091       0.00000000
Si      -2.24924175       2.93860197      -0.18081948       0.00000000
Si      -2.72948724      -2.62128906       0.02642111       0.00000000
Si      -2.49810408       0.04670343      -2.89214845       0.00000000
Si      -2.45332287       0.54102348       2.94502507       0.00000000
Si      -0.04597038       0.59722398       3.85270034       0.00000000
Si       0.21631491      -2.66458788      -2.89404058       0.00000000
