10
Lattice="16.28999089631971 0.0 0.0 0.0 16.28999089631971 0.0 0.0 0.0 34.40246978574605" Properties=species:S:1:pos:R:3:initial_magmoms:R:1 pbc="T T T"
Si      -1.74710250      -1.17017586       1.07053665       0.00000000
Si       1.60570530      -1.06668549      -1.37592755       0.00000000
Si      -0.98719029       1.58643423      -1.51484480       0.00000000
Si       1.26087858       0.69906906       1.92936039       0.00000000
Si      -0.15159474      -2.97807264       1.41253180       0.00000000
Si       0.75559536       2.95790562       1.41755456       0.00000000
Si       0.18296928      -2.94739857      -2.02396723       0.00000000
Si       0.36701370       1.39150809      -3.44530607       0.00000000
Si      -0.56379690       3.69295929      -0.48201327       0.00000000
Si       3.55211595       0.35675100      -1.70089346       0.00000000
