10
Lattice="16.28999089631971 0.0 0.0 0.0 16.28999089631971 0.0 0.0 0.0 34.40246978574605" Properties=species:S:1:pos:R:3:initial_magmoms:R:1 pbc="T T T"
Si      -1.35439947      -1.35619137       1.35721259       0.00000000
Si      -1.35770634       1.35715248      -1.35752222       0.00000000
Si       1.35765747      -1.35782037      -1.35800385       0.00000000
Si       1.35870003       1.35922131       1.35731580       0.00000000
Si       0.00713502       2.70646947       2.71559487       0.00000000
Si      -2.71301805      -0.00112401      -2.71487242       0.00000000
Si      -2.71451673       2.71391400      -0.00024082       0.00000000
Si      -0.00130320      -2.71340901       2.71538846       0.00000000
Si       2.70914103       0.00268785       2.72020481       0.00000000
Si       0.00055386       2.71494027      -2.71442519       0.00000000
