10
Lattice="16.28999089631971 0.0 0.0 0.0 16.28999089631971 0.0 0.0 0.0 34.40246978574605" Properties=species:S:1:pos:R:3:initial_magmoms:R:1 pbc="T T T"
Si       0.04725729       0.92867661      -2.11138396       0.00000000
Si       1.83091455      -1.40774922      -0.13224317       0.00000000
Si       1.06837965       1.77113025       1.08601777       0.00000000
Si      -2.11486554      -0.64674558       0.93788066       0.00000000
Si      -2.25688176       0.91873971      -2.59184912       0.00000000
Si      -0.14654484       3.57067026       0.12175041       0.00000000
Si      -1.67420475      -2.89647603       1.60460089       0.00000000
Si       3.41581752       1.61171631       0.72510126       0.00000000
Si       0.93494826       1.58338800       3.37973492       0.00000000
Si       0.87006519      -3.58915941      -1.19682819       0.00000000
