10
Lattice="16.28999089631971 0.0 0.0 0.0 16.28999089631971 0.0 0.0 0.0 34.40246978574605" Properties=species:S:1:pos:R:3:initial_magmoms:R:1 pbc="T T T"
Si      -1.15333526       1.50076512      -1.33979117       0.00000000
Si       1.33462341       1.36208835       1.35175292       0.00000000
Si      -1.38295747      -1.35031068       1.35223455       0.00000000
Si       1.41405345      -1.38978135      -1.35457392       0.00000000
Si      -2.48313031       0.08369802      -2.61926687       0.00000000
Si       2.69294877       0.01132155       2.70992878       0.00000000
Si      -0.02220327      -2.70301599       2.71010080       0.00000000
Si      -2.72123131      -2.69912268      -0.01665424       0.00000000
Si      -2.71191701       2.71112841       0.00857998       0.00000000
Si       2.69591355       2.72722293      -0.02871232       0.00000000
