10
Lattice="16.28999089631971 0.0 0.0 0.0 16.28999089631971 0.0 0.0 0.0 34.40246978574605" Properties=species:S:1:pos:R:3:initial_magmoms:R:1 pbc="T T T"
Si       1.28011707      -1.37057544       1.44141269       0.00000000
Si      -1.81985364      -0.85102218      -1.25192126       0.00000000
Si      -1.38142458       1.33777931       1.42543961       0.00000000
Si       1.76083497       1.00087389      -1.48951222       0.00000000
Si      -0.38828844      -0.72335745      -3.13219667       0.00000000
Si       2.74458807      -2.55603132       0.13023406       0.00000000
Si      -2.60565066       2.72884608      -0.01389517       0.00000000
Si      -3.49586658       0.86429853      -1.22723965       0.00000000
Si      -2.72969901      -2.68169238      -0.07113059       0.00000000
Si       2.73854448       2.68523938      -0.06216186       0.00000000
