10
Lattice="16.28999089631971 0.0 0.0 0.0 16.28999089631971 0.0 0.0 0.0 34.40246978574605" Properties=species:S:1:pos:R:3:initial_magmoms:R:1 pbc="T T T"
Si       1.29963249      -1.31647635       1.39797954       0.00000000
Si      -1.34035749      -1.35845568      -1.35494203       0.00000000
Si       1.37769417       1.35264036      -1.35377235       0.00000000
Si      -1.43922150       1.17203292       1.49423771       0.00000000
Si       2.35893861       0.34353981       2.73647718       0.00000000
Si       0.10508679       1.56103227       3.38640901       0.00000000
Si      -2.68182270      -2.72150514       0.00966710       0.00000000
Si      -2.69410536      -0.00669519      -2.70991846       0.00000000
Si      -2.69617419       2.71818265       0.05703933       0.00000000
Si       0.02042766       2.70903582      -2.70964324       0.00000000
