10
Lattice="16.28999089631971 0.0 0.0 0.0 16.28999089631971 0.0 0.0 0.0 34.40246978574605" Properties=species:S:1:pos:R:3:initial_magmoms:R:1 pbc="T T T"
Si      -1.05930612      -1.66001616      -1.33849764       0.00000000
Si       0.68841540      -1.02490164       2.05420702       0.00000000
Si       1.81309329       1.10646601      -1.19644976       0.00000000
Si      -2.25385182       1.21749246       0.64993182       0.00000000
Si       0.38797893       2.34540718      -2.72361065       0.00000000
Si      -2.35893861      -0.34353981      -2.73647718       0.00000000
Si      -2.29353426      -2.89386963       0.38878253       0.00000000
Si      -0.17330931      -3.28862520       1.73116765       0.00000000
Si      -0.67437342       0.00219915       3.82744891       0.00000000
Si      -3.79816011       0.82849311      -1.24223948       0.00000000
