10
Lattice="16.28999089631971 0.0 0.0 0.0 16.28999089631971 0.0 0.0 0.0 34.40246978574605" Properties=species:S:1:pos:R:3:initial_magmoms:R:1 pbc="T T T"
Si      -1.35786924       1.35577109       1.35607731       0.00000000
Si       1.35917113       1.35621092      -1.35858869       0.00000000
Si      -1.35777150      -1.35847313      -1.35858869       0.00000000
Si       1.36252523      -1.36167507       1.36251058       0.00000000
Si      -2.70185940      -0.02168036       2.72195933       0.00000000
Si      -2.71301805       2.71336340      -0.00154811       0.00000000
Si      -2.71334385      -0.00175117      -2.71531965       0.00000000
Si       0.00138465       2.71328195      -2.71545726       0.00000000
Si       2.71612359       2.71403129      -0.00086006       0.00000000
Si      -2.71389771      -2.71807188      -0.00292421       0.00000000
