10
Lattice="16.28999089631971 0.0 0.0 0.0 16.28999089631971 0.0 0.0 0.0 34.40246978574605" Properties=species:S:1:pos:R:3:initial_magmoms:R:1 pbc="T T T"
Si      -0.56922147       0.43423276       2.20963747       0.00000000
Si      -1.80428040       0.56866109      -1.42054758       0.00000000
Si       0.22633326      -2.38046000       0.27453186       0.00000000
Si       1.91980908       1.27119015      -0.74261213       0.00000000
Si       2.36361384       0.04042364      -2.74101831       0.00000000
Si       1.11980718      -0.74005700       3.38296876       0.00000000
Si      -2.00805201      -3.08611022       0.74914860       0.00000000
Si      -1.10856708       2.53021656      -2.59790396       0.00000000
Si      -0.40664727       2.71100298       2.74562825       0.00000000
Si       1.42332246      -2.82815807       2.28140106       0.00000000
