10
Lattice="16.28999089631971 0.0 0.0 0.0 16.28999089631971 0.0 0.0 0.0 34.40246978574605" Properties=species:S:1:pos:R:3:initial_magmoms:R:1 pbc="T T T"
Si      -1.19576745       0.15670980      -1.99603241       0.00000000
Si       1.92388714       1.14331365      -0.67043571       0.00000000
Si      -0.56224935       1.45005435       1.77186579       0.00000000
Si      -0.06779898      -2.39320137       0.32864698       0.00000000
Si      -2.78568774       0.66266091       2.04526237       0.00000000
Si      -3.09617514      -1.13417496      -1.52664485       0.00000000
Si       3.32458442       0.97959915       1.20449995       0.00000000
Si       1.16382343       3.37600476      -0.97981729       0.00000000
Si       1.78227654      -2.86595997       1.73687846       0.00000000
Si      -0.41655159       3.71094345       0.78792021       0.00000000
