10
Lattice="16.28999089631971 0.0 0.0 0.0 16.28999089631971 0.0 0.0 0.0 34.40246978574605" Properties=species:S:1:pos:R:3:initial_magmoms:R:1 pbc="T T T"
Si      -0.16257420      -2.27677022      -0.53599078       0.00000000
Si      -1.90377972       0.13400154       1.41033004       0.00000000
Si      -0.39143241       1.61604945      -1.77162498       0.00000000
Si       2.26165473      -0.08011422       0.92301878       0.00000000
Si       3.03674614       1.97403849      -0.01279773       0.00000000
Si       1.83200598       2.40344289      -2.04502156       0.00000000
Si       1.80853209      -0.83781099       3.16740276       0.00000000
Si      -2.17642545      -3.10378976       0.28605670       0.00000000
Si       1.52645445      -3.45105998       0.63734051       0.00000000
Si      -2.30933556      -2.00577141       2.37755602       0.00000000
