10
Lattice="16.28999089631971 0.0 0.0 0.0 16.28999089631971 0.0 0.0 0.0 34.40246978574605" Properties=species:S:1:pos:R:3:initial_magmoms:R:1 pbc="T T T"
Si       1.09375851      -1.94565479      -0.80787365       0.00000000
Si       0.77509141       2.05415271      -0.93581651       0.00000000
Si      -0.45312264      -0.75769677       2.24438398       0.00000000
Si      -2.26165473       0.08011422      -0.92301878       0.00000000
Si      -0.73520028      -3.37094576      -0.28567827       0.00000000
Si      -2.42422893      -2.19665600      -1.45900956       0.00000000
Si      -1.65035619       1.06611534       3.09677445       0.00000000
Si      -0.13906773       3.64363317       0.50454690       0.00000000
Si      -0.00482184       2.69314425       2.61166495       0.00000000
Si      -1.07131185      -3.06016514       2.07484851       0.00000000
