10
Lattice="16.28999089631971 0.0 0.0 0.0 16.28999089631971 0.0 0.0 0.0 34.40246978574605" Properties=species:S:1:pos:R:3:initial_magmoms:R:1 pbc="T T T"
Si      -0.15687270       1.95989877      -1.14371075       0.00000000
Si      -1.65744234      -0.20020410       1.64770721       0.00000000
Si       2.30185845      -0.35359074       0.29025380       0.00000000
Si      -1.11772206      -0.22151142      -2.20829577       0.00000000
Si      -1.41507972      -2.51046819       2.18173705       0.00000000
Si       2.43610434      -1.30407966       2.39737185       0.00000000
Si      -0.21216096      -2.30106024      -2.90893686       0.00000000
Si      -3.36536739      -0.64826055      -1.45921597       0.00000000
Si      -3.66199200       0.47117196       0.59313331       0.00000000
Si       1.96929810       2.98007631      -1.40916035       0.00000000
