10
Lattice="16.28999089631971 0.0 0.0 0.0 16.28999089631971 0.0 0.0 0.0 34.40246978574605" Properties=species:S:1:pos:R:3:initial_magmoms:R:1 pbc="T T T"
Si      -0.54126783       1.99928799       1.12279403       0.00000000
Si       0.86879457       0.08581572      -2.18875516       0.00000000
Si      -2.12617080      -1.02017754       0.26544961       0.00000000
Si       1.52134821      -1.31069340       1.33605506       0.00000000
Si       0.18767709      -2.23285401      -2.75711868       0.00000000
Si       0.67461777       1.66148226       3.16981094       0.00000000
Si       0.33256035      -3.33366705       1.69941415       0.00000000
Si       2.92547942       1.47344679      -1.88824941       0.00000000
Si      -1.96929810      -2.98007631       1.40916035       0.00000000
Si       0.03994308       3.85364385      -0.19237872       0.00000000
