10
Lattice="16.28999089631971 0.0 0.0 0.0 16.28999089631971 0.0 0.0 0.0 34.40246978574605" Properties=species:S:1:pos:R:3:initial_magmoms:R:1 pbc="T T T"
Si       1.41118641       1.86854445       0.17424861       0.00000000
Si       1.32374169      -1.49193594      -1.24894796       0.00000000
Si      -2.23577711       0.82911213      -0.27229570       0.00000000
Si       0.08658624      -1.39975083       1.94879780       0.00000000
Si       2.96508951      -1.48727700       0.42435470       0.00000000
Si      -0.94898861      -3.16170655       0.86243600       0.00000000
Si       3.23925021       0.73622655       1.24887916       0.00000000
Si      -0.20641711       3.51448605       0.98281031       0.00000000
Si      -2.33511353       2.54878227       1.32081476       0.00000000
Si      -2.37002300       1.77960105      -2.37941375       0.00000000
