10
Lattice="16.28999089631971 0.0 0.0 0.0 16.28999089631971 0.0 0.0 0.0 34.40246978574605" Properties=species:S:1:pos:R:3:initial_magmoms:R:1 pbc="T T T"
Si       1.35583420       1.35762489       1.35563008       0.00000000
Si       1.35635059      -1.35746199      -1.35669656       0.00000000
Si      -1.35767485       1.35729909      -1.35679976       0.00000000
Si      -1.35529651      -1.35785295       1.35944876       0.00000000
Si       0.00833957       2.70594819       2.71359953       0.00000000
Si       2.71116709       0.00027693       2.71556047       0.00000000
Si       2.71383865       2.71371852       0.00027522       0.00000000
Si      -2.71386622       0.00255753      -2.71397796       0.00000000
Si       0.00057995      -2.71528236      -2.71356513       0.00000000
Si       2.71435993       0.00084708      -2.71473481       0.00000000
