10
Lattice="16.28999089631971 0.0 0.0 0.0 16.28999089631971 0.0 0.0 0.0 34.40246978574605" Properties=species:S:1:pos:R:3:initial_magmoms:R:1 pbc="T T T"
Si       1.34749463      -1.34832330      -1.35796945       0.00000000
Si      -1.36500444       1.36772469      -1.35301549       0.00000000
Si      -1.36223514      -1.35259128       1.37458585       0.00000000
Si       1.33241335       1.37609775       1.38084710       0.00000000
Si      -2.29703679       0.36554760       2.73785328       0.00000000
Si      -0.54178929       2.21706900       2.80387166       0.00000000
Si       2.70282751      -2.70567126       0.00196094       0.00000000
Si       2.70549907       0.00777033      -2.71332431       0.00000000
Si      -0.00833957      -2.70594819      -2.71359953       0.00000000
Si      -2.73020418      -2.70319518       0.00763735       0.00000000
