10
Lattice="16.28999089631971 0.0 0.0 0.0 16.28999089631971 0.0 0.0 0.0 34.40246978574605" Properties=species:S:1:pos:R:3:initial_magmoms:R:1 pbc="T T T"
Si       2.13726266      -0.60233904      -0.77928518       0.00000000
Si      -1.18878786      -2.02297365       0.36335909       0.00000000
Si       0.75401849       1.23380460       1.88900627       0.00000000
Si      -1.52134821       1.31069340      -1.33605506       0.00000000
Si      -0.84673044       2.97217566       1.83375587       0.00000000
Si      -0.27462871      -3.61245411      -1.07700432       0.00000000
Si      -3.64751901       0.29051586      -1.07060546       0.00000000
Si       2.90942495       1.19250945      -2.17805598       0.00000000
Si       3.59484299      -0.73179567       1.14646295       0.00000000
Si      -0.65255364       1.39650912      -3.52481022       0.00000000
