10
Lattice="16.28999089631971 0.0 0.0 0.0 16.28999089631971 0.0 0.0 0.0 34.40246978574605" Properties=species:S:1:pos:R:3:initial_magmoms:R:1 pbc="T T T"
Si      -1.60074892       1.73837106      -0.05525040       0.00000000
Si      -0.75401849      -1.23380460      -1.88900627       0.00000000
Si       0.22079955      -1.52189325       1.83657688       0.00000000
Si       2.07926700       1.19066868       0.33707559       0.00000000
Si       1.38324417      -1.83614364      -2.66829145       0.00000000
Si       2.84082450      -1.96560027      -0.74254332       0.00000000
Si      -0.20201718       3.56522940       0.41313949       0.00000000
Si       1.43972160       2.80443753       1.94215811       0.00000000
Si       3.65196876      -0.41725206       0.93216984       0.00000000
Si       1.83840306      -3.16783485       1.02801518       0.00000000
