10
Lattice="16.28999089631971 0.0 0.0 0.0 16.28999089631971 0.0 0.0 0.0 34.40246978574605" Properties=species:S:1:pos:R:3:initial_magmoms:R:1 pbc="T T T"
Si       0.92318362       1.86176781       1.00537834       0.00000000
Si      -2.11172224      -0.02021589       0.98934678       0.00000000
Si       1.43815288      -2.00419128      -0.33982779       0.00000000
Si      -1.74185779       1.59223347      -1.10246216       0.00000000
Si      -0.23102348       0.42652107      -2.68408219       0.00000000
Si       0.02294121      -2.05985421      -2.20516514       0.00000000
Si       2.77649041      -0.89479341       1.31156049       0.00000000
Si       3.05705308       1.31391882       0.24869559       0.00000000
Si      -2.06158162      -2.34416358       1.30832666       0.00000000
Si      -0.49572166       3.48980085       0.00942628       0.00000000
