10
Lattice="16.28999089631971 0.0 0.0 0.0 16.28999089631971 0.0 0.0 0.0 34.24959146834617" Properties=species:S:1:pos:R:3:initial_magmoms:R:1 pbc="T T T"
Si       1.35023900      -1.29359446       1.40716923       0.00000000
Si      -0.94053084      -1.75984684      -1.23583178       0.00000000
Si       1.00181219       1.63129852      -1.45421248       0.00000000
Si      -1.37754927       1.41356638       1.39938772       0.00000000
Si       2.62281380      -2.68910989      -0.01721043       0.00000000
Si      -2.72306639      -2.68192600       0.03840409       0.00000000
Si       2.60468303       2.79803719      -0.15708926       0.00000000
Si      -0.02287442      -2.64786361       2.76347093       0.00000000
Si      -0.68417837       3.51696376      -1.37417114       0.00000000
Si      -2.64075302       2.81115064      -0.00915150       0.00000000
