10
Lattice="16.28999089631971 0.0 0.0 0.0 16.28999089631971 0.0 0.0 0.0 34.24959146834617" Properties=species:S:1:pos:R:3:initial_magmoms:R:1 pbc="T T T"
Si      -1.12337469       1.22657740       1.62147932       0.00000000
Si       1.00763424      -1.94023674       0.84103344       0.00000000
Si       1.30632768       1.04241080      -1.64178933       0.00000000
Si      -2.17497727      -0.25295112      -0.89141462       0.00000000
Si       2.52333729      -2.35032120      -0.94275478       0.00000000
Si       0.11350872       0.43922142      -3.56192525       0.00000000
Si       3.35313360      -0.05362668      -1.29812874       0.00000000
Si      -3.42079316       0.72689468       0.94977595       0.00000000
Si      -0.76258377      -3.49153344       0.98864926       0.00000000
Si      -2.16596727       0.13730841      -3.15973208       0.00000000
