10
Lattice="16.28999089631971 0.0 0.0 0.0 16.28999089631971 0.0 0.0 0.0 34.24959146834617" Properties=species:S:1:pos:R:3:initial_magmoms:R:1 pbc="T T T"
Si       1.35697329      -1.35685112      -1.35734632       0.00000000
Si       1.35720135       1.35749457       1.35741482       0.00000000
Si      -1.35780408      -1.35782363       1.35744907       0.00000000
Si      -1.35731538       1.35757602      -1.35820256       0.00000000
Si      -0.00146610      -2.71412881      -2.71400764       0.00000000
Si      -2.71445157       0.00096111      -2.71393914       0.00000000
Si       2.71443528      -2.71459649       0.00013700       0.00000000
Si      -2.71494027      -2.71507595      -0.00027400       0.00000000
Si       2.71498914       2.71518462      -0.00010275       0.00000000
Si       0.00192222      -2.71729549       2.71387065       0.00000000
