10
Lattice="16.28999089631971 0.0 0.0 0.0 16.28999089631971 0.0 0.0 0.0 34.24959146834617" Properties=species:S:1:pos:R:3:initial_magmoms:R:1 pbc="T T T"
Si       1.35452979      -1.35117242      -1.36029178       0.00000000
Si      -1.35811359      -1.34954668       1.36871719       0.00000000
Si      -1.36023129       1.36246302      -1.35936705       0.00000000
Si       1.36950030       1.36316349       1.38128680       0.00000000
Si       2.70899442      -2.70805104       0.00349346       0.00000000
Si      -0.00299736      -2.70962804      -2.71664486       0.00000000
Si      -2.71551042      -2.71232704      -0.00291122       0.00000000
Si       2.71194291       0.00588069      -2.71650787       0.00000000
Si       2.71355562       2.71827972      -0.00318521       0.00000000
Si      -2.71743264       0.00496845      -2.71678186       0.00000000
