10
Lattice="16.28999089631971 0.0 0.0 0.0 16.28999089631971 0.0 0.0 0.0 34.24959146834617" Properties=species:S:1:pos:R:3:initial_magmoms:R:1 pbc="T T T"
Si       1.35811359       1.34954668      -1.36871719       0.00000000
Si      -1.35739683      -1.36278037      -1.37162841       0.00000000
Si       1.26364788      -1.29463472       1.55431583       0.00000000
Si      -1.27961208       1.40806036       1.44447733       0.00000000
Si      -2.11416507      -0.32708854       2.88686543       0.00000000
Si      -0.48443202      -2.23362520       2.81860595       0.00000000
Si       2.19020679       0.56062198       2.92700597       0.00000000
Si       2.70438435      -2.70649132       0.01955653       0.00000000
Si      -2.69757513      -2.73418432      -0.00455520       0.00000000
Si      -0.00211770       2.71200970      -2.72808423       0.00000000
