10
Lattice="16.28999089631971 0.0 0.0 0.0 16.28999089631971 0.0 0.0 0.0 34.24959146834617" Properties=species:S:1:pos:R:3:initial_magmoms:R:1 pbc="T T T"
Si       1.27961208      -1.40806036      -1.44447733       0.00000000
Si      -0.83455299      -1.73514890       1.44238810       0.00000000
Si      -1.44331029       1.31256675      -1.42447555       0.00000000
Si       1.57584573       1.11654918       1.47441149       0.00000000
Si      -2.54392785      -2.62990305      -0.08606927       0.00000000
Si       2.54325996      -2.70269508       0.10983850       0.00000000
Si       2.65194684       2.67594201      -0.04383950       0.00000000
Si       2.63772567      -0.05851368      -2.81319452       0.00000000
Si       3.46981887      -0.84743838       1.48252864       0.00000000
Si      -0.07938117       2.66294259      -2.81089979       0.00000000
