10
Lattice="16.28999089631971 0.0 0.0 0.0 16.28999089631971 0.0 0.0 0.0 34.24959146834617" Properties=species:S:1:pos:R:3:initial_magmoms:R:1 pbc="T T T"
Si       2.26075878      -0.55786082      -0.49247515       0.00000000
Si      -0.21835116       2.39471145       0.45370459       0.00000000
Si      -0.15767091      -0.64300377       2.36062016       0.00000000
Si      -1.12811508      -1.45125071      -1.63134320       0.00000000
Si       1.75146822       0.66715695       3.16004032       0.00000000
Si       1.67422104       2.70449838       1.86533654       0.00000000
Si       2.17108233      -2.88869660      -0.95402290       0.00000000
Si      -3.17492100      -0.35521322      -1.97500380       0.00000000
Si       2.70858717       0.48586554      -2.60454589       0.00000000
Si      -2.20486779       2.54400930       1.87718691       0.00000000
