10
Lattice="16.28999089631971 0.0 0.0 0.0 16.28999089631971 0.0 0.0 0.0 34.24959146834617" Properties=species:S:1:pos:R:3:initial_magmoms:R:1 pbc="T T T"
Si      -2.08979523      -0.38920557       1.06458065       0.00000000
Si       0.07967439      -2.39565857       0.39445277       0.00000000
Si       1.90913913       1.31016072       0.79942016       0.00000000
Si       0.15767091       0.64300377      -2.36062016       0.00000000
Si      -1.12917393      -0.85454312       3.14216583       0.00000000
Si      -0.06068025       3.03771522      -1.90691557       0.00000000
Si      -2.35729332      -2.81439302       0.38938382       0.00000000
Si       2.41842969       0.08514294      -2.85309531       0.00000000
Si      -2.04719688       3.18701307      -0.48343325       0.00000000
Si       1.10837160      -3.33728573      -1.53921175       0.00000000
