10
Lattice="16.28999089631971 0.0 0.0 0.0 16.28999089631971 0.0 0.0 0.0 34.24959146834617" Properties=species:S:1:pos:R:3:initial_magmoms:R:1 pbc="T T T"
Si      -0.43033293      -2.07394506       0.92552723       0.00000000
Si      -0.16430094       2.10157290       1.05831297       0.00000000
Si       2.37964320       0.19533339      -0.04544923       0.00000000
Si      -0.77061474      -0.20825136      -2.35561972       0.00000000
Si       2.06193933       1.74591333       1.68364236       0.00000000
Si       0.17058888      -3.14680446      -1.11013263       0.00000000
Si      -2.56909590      -1.65517803       1.76111498       0.00000000
Si       2.89030212       0.63019494      -2.36216139       0.00000000
Si       0.00855225       3.72659814      -0.68389622       0.00000000
Si       1.02439665       0.47969163      -3.78519847       0.00000000
