10
Lattice="16.28999089631971 0.0 0.0 0.0 16.28999089631971 0.0 0.0 0.0 34.24959146834617" Properties=species:S:1:pos:R:3:initial_magmoms:R:1 pbc="T T T"
Si      -1.17628461       0.58697757      -1.95304980       0.00000000
Si       2.22671268      -0.65200725      -0.64539966       0.00000000
Si      -1.43037603      -1.64431260       1.05084655       0.00000000
Si       0.12087180       1.91609496       1.49472151       0.00000000
Si      -3.31504758       1.00574460      -1.11746205       0.00000000
Si      -3.22900380       1.14130998       1.29816299       0.00000000
Si       0.11486079      -3.45595771       1.36097678       0.00000000
Si       2.75952600       0.88800048      -2.35178376       0.00000000
Si      -2.41215804      -0.50771043       2.87891952       0.00000000
Si       0.86682348       1.00756908       3.60076431       0.00000000
