10
Lattice="16.28999089631971 0.0 0.0 0.0 16.28999089631971 0.0 0.0 0.0 34.24959146834617" Properties=species:S:1:pos:R:3:initial_magmoms:R:1 pbc="T T T"
Si      -1.70732232      -0.15915330      -1.59767584       0.00000000
Si      -1.37753127       0.87329061       1.77036237       0.00000000
Si       0.68792670      -2.24381718       0.54063010       0.00000000
Si       1.84406058       0.97490763      -1.83927259       0.00000000
Si      -2.27336724       2.65711077       0.30697926       0.00000000
Si      -2.44623672       1.97245836      -2.07008071       0.00000000
Si       2.82357828      -2.10054663       1.43855214       0.00000000
Si      -0.83266335      -1.02061737      -3.60216855       0.00000000
Si      -3.72438107      -0.96189192      -0.51960084       0.00000000
Si       1.55519001       3.13175250       1.75539529       0.00000000
