10
Lattice="16.28999089631971 0.0 0.0 0.0 16.28999089631971 0.0 0.0 0.0 34.24959146834617" Properties=species:S:1:pos:R:3:initial_magmoms:R:1 pbc="T T T"
Si       1.84865436      -0.15659577       1.40334355       0.00000000
Si      -0.39016179      -2.11375782      -1.00073937       0.00000000
Si       0.66961674       1.63030320      -1.67227149       0.00000000
Si      -1.83892923       0.89393004       1.38162929       0.00000000
Si      -0.45535437       3.43482795      -0.72427652       0.00000000
Si      -2.49043149       2.60700273      -0.07291742       0.00000000
Si       2.54822841       2.14666362       1.57781106       0.00000000
Si      -2.37327381      -1.86880509      -2.24560997       0.00000000
Si       1.26977292      -1.48043520       3.26754985       0.00000000
Si       1.02297942      -2.33411265      -2.85792451       0.00000000
