10
Lattice="16.28999089631971 0.0 0.0 0.0 16.28999089631971 0.0 0.0 0.0 34.24959146834617" Properties=species:S:1:pos:R:3:initial_magmoms:R:1 pbc="T T T"
Si       1.07153991       1.65750750       1.34719272       0.00000000
Si      -1.57025826      -1.07663868       1.57947015       0.00000000
Si      -1.42830720       1.00194903      -1.82762772       0.00000000
Si       1.95561450      -1.64229264      -0.11555819       0.00000000
Si      -2.93272128      -2.25846189       0.01496708       0.00000000
Si       2.48020137       0.26363736       2.87605081       0.00000000
Si      -0.24154812      -2.47853979       2.90856739       0.00000000
Si      -0.47558655       0.12201210      -3.81718760       0.00000000
Si      -1.55519001      -3.13175250      -1.75539529       0.00000000
Si       1.88825535       3.60513990       0.05140867       0.00000000
