10
Lattice="16.28999089631971 0.0 0.0 0.0 16.28999089631971 0.0 0.0 0.0 34.24959146834617" Properties=species:S:1:pos:R:3:initial_magmoms:R:1 pbc="T T T"
Si      -2.04680592       1.09603748      -0.34366059       0.00000000
Si       1.15329942      -0.19300392      -2.05761386       0.00000000
Si       1.12811508       1.45125071       1.63134320       0.00000000
Si      -0.82979631      -2.29669452       0.35537396       0.00000000
Si      -3.35313360       0.05362668       1.29812874       0.00000000
Si       3.29919741      -1.43744589       0.67732030       0.00000000
Si       3.38887386       0.89338988       1.13886805       0.00000000
Si      -2.34549936      -1.88661006       2.13916218       0.00000000
Si       2.75819022      -1.87735734      -1.59366863       0.00000000
Si      -0.24539256      -0.58919301      -3.89575621       0.00000000
