10
Lattice="16.28999089631971 0.0 0.0 0.0 16.28999089631971 0.0 0.0 0.0 34.24959146834617" Properties=species:S:1:pos:R:3:initial_magmoms:R:1 pbc="T T T"
Si      -1.35870003       1.35474156      -1.35559959       0.00000000
Si       1.35747828       1.35462753       1.35744907       0.00000000
Si      -1.35775521      -1.35974259       1.35724357       0.00000000
Si       1.35928647      -1.36436895      -1.36224401       0.00000000
Si      -2.71305063       2.71195920       0.00000000       0.00000000
Si       0.00011403       2.71215468       2.71452139       0.00000000
Si       2.71555929       2.71135647      -0.00085624       0.00000000
Si      -2.71451673      -0.00306252       2.71452139       0.00000000
Si       2.71480995      -0.00273672       2.71472689       0.00000000
Si      -2.71283886      -2.71766070      -0.00030825       0.00000000
