10
Lattice="16.28999089631971 0.0 0.0 0.0 16.28999089631971 0.0 0.0 0.0 34.24959146834617" Properties=species:S:1:pos:R:3:initial_magmoms:R:1 pbc="T T T"
Si      -1.35658233       1.35702216      -1.36155902       0.00000000
Si       1.35979146      -1.35876519      -1.36238101       0.00000000
Si       1.37272572       1.35071793       1.36327150       0.00000000
Si      -1.37564163      -1.34881200       1.37868383       0.00000000
Si      -2.71349046      -2.71497285      -0.00030825       0.00000000
Si       2.71731861       2.71259451      -0.00510319       0.00000000
Si      -2.71736748       2.71324611      -0.00208923       0.00000000
Si       0.00047241       2.71420722      -2.71945333       0.00000000
Si      -2.71433754      -0.00074934      -2.71945333       0.00000000
Si       2.71580364      -0.00105885      -2.71948758       0.00000000
