10
Lattice="16.28999089631971 0.0 0.0 0.0 16.28999089631971 0.0 0.0 0.0 34.24959146834617" Properties=species:S:1:pos:R:3:initial_magmoms:R:1 pbc="T T T"
Si       1.34702010       1.34232858       1.37152566       0.00000000
Si       1.35415512      -1.35526284      -1.35607908       0.00000000
Si      -1.35865116       1.35723393      -1.35649008       0.00000000
Si      -1.34459289      -1.36187658       1.36837469       0.00000000
Si      -2.61570159       0.03114648       2.75709365       0.00000000
Si      -0.00151497      -2.71365336      -2.71438439       0.00000000
Si       2.71366965       0.00120546      -2.71445289       0.00000000
Si      -2.71731861      -2.71259451       0.00510319       0.00000000
Si       2.71376739       2.71634121       0.00448670       0.00000000
Si      -0.00162900       2.71650411      -2.71452139       0.00000000
