10
Lattice="16.28999089631971 0.0 0.0 0.0 16.28999089631971 0.0 0.0 0.0 34.24959146834617" Properties=species:S:1:pos:R:3:initial_magmoms:R:1 pbc="T T T"
Si       1.57032342       1.53569088      -0.70639822       0.00000000
Si      -1.86590547      -0.15050331      -1.42303707       0.00000000
Si      -0.51065892      -0.43486155       2.31671216       0.00000000
Si       1.20725190      -2.62756071      -0.71725535       0.00000000
Si      -0.55498401      -1.54533456      -2.72541276       0.00000000
Si       3.17609388       0.98029962       0.86038447       0.00000000
Si       3.17337345      -1.43501868       0.37571823       0.00000000
Si      -0.35121240      -3.43821627       1.02807056       0.00000000
Si       0.45665757       3.60486297      -0.45117012       0.00000000
Si      -3.66091686      -0.83844630       0.00654168       0.00000000
