10
Lattice="16.28999089631971 0.0 0.0 0.0 16.28999089631971 0.0 0.0 0.0 34.24959146834617" Properties=species:S:1:pos:R:3:initial_magmoms:R:1 pbc="T T T"
Si       1.36272366       1.34798696      -1.38478026       0.00000000
Si      -1.35070164      -1.36599795      -1.38529400       0.00000000
Si       1.37010303      -1.37632581       1.38786272       0.00000000
Si      -1.44073647       1.41185660       1.53475930       0.00000000
Si      -2.70438435       2.70649132      -0.01955653       0.00000000
Si      -2.70053991      -2.72313414      -0.00931589       0.00000000
Si       2.70927135       2.71456790      -0.00291122       0.00000000
Si       0.00825903       2.70486558      -2.74856550       0.00000000
Si      -2.70588303      -0.00907353      -2.74818876       0.00000000
Si       2.71445157      -2.74260069      -0.01924828       0.00000000
