10
Lattice="16.28999089631971 0.0 0.0 0.0 16.28999089631971 0.0 0.0 0.0 34.24959146834617" Properties=species:S:1:pos:R:3:initial_magmoms:R:1 pbc="T T T"
Si      -0.46289664      -2.27216178      -0.40054920       0.00000000
Si      -1.06062561       0.37120023       2.09515143       0.00000000
Si       2.34953928      -0.39674295       0.14843781       0.00000000
Si      -0.15381018       1.14909660      -2.18598140       0.00000000
Si       2.50331688      -1.14166836      -2.15464300       0.00000000
Si      -1.18170918       2.73550544       2.06497752       0.00000000
Si       0.71992026      -3.29334930       1.34285873       0.00000000
Si      -3.48777045       0.61037001      -1.05447701       0.00000000
Si       0.63840510      -2.55808386      -2.68849168       0.00000000
Si      -2.28698568       0.48254238      -3.08109497       0.00000000
