10
Lattice="16.28999089631971 0.0 0.0 0.0 16.28999089631971 0.0 0.0 0.0 34.24959146834617" Properties=species:S:1:pos:R:3:initial_magmoms:R:1 pbc="T T T"
Si       2.01282498      -1.22137533      -0.04640822       0.00000000
Si      -0.54100719      -0.43991145      -2.27098893       0.00000000
Si       0.08967645       2.33083577       0.46154775       0.00000000
Si      -1.22038164      -1.09159290       1.77543131       0.00000000
Si       2.32621200      -1.52779023       2.28609301       0.00000000
Si      -3.29919741       1.43744589      -0.67732030       0.00000000
Si      -2.14589799       1.24444197      -2.73493416       0.00000000
Si      -2.17108233       2.88869660       0.95402290       0.00000000
Si       0.53750484       3.37456214      -1.65052298       0.00000000
Si       0.28996200      -2.45076534       2.89744856       0.00000000
