10
Lattice="16.28999089631971 0.0 0.0 0.0 16.28999089631971 0.0 0.0 0.0 34.24959146834617" Properties=species:S:1:pos:R:3:initial_magmoms:R:1 pbc="T T T"
Si       1.36252396       0.23789916       1.87335095       0.00000000
Si       1.37332912      -1.69023411      -0.85507578       0.00000000
Si      -2.24860644      -0.54688788       0.43171634       0.00000000
Si      -0.23296329       2.02370670      -1.18205681       0.00000000
Si      -2.91183750       1.71978417       0.53316369       0.00000000
Si       0.95506871      -1.90972557       2.67636732       0.00000000
Si       0.22726179       1.94474907       2.96687252       0.00000000
Si       3.55041269      -0.72708786      -0.72451626       0.00000000
Si      -3.04769610      -1.07748576      -1.79437135       0.00000000
Si       1.41173442      -3.34649217       0.84394466       0.00000000
