10
Lattice="16.28999089631971 0.0 0.0 0.0 16.28999089631971 0.0 0.0 0.0 34.24959146834617" Properties=species:S:1:pos:R:3:initial_magmoms:R:1 pbc="T T T"
Si       1.26320375      -1.39758426       1.40853921       0.00000000
Si      -1.08227502      -1.63892061      -1.40063924       0.00000000
Si      -1.45800387       1.33812576       1.39671967       0.00000000
Si       1.95657465       0.70581312      -1.36501964       0.00000000
Si      -1.32511005      -0.36572679      -3.48113183       0.00000000
Si       2.66399397       2.68804548      -0.05131277       0.00000000
Si       2.61830214      -0.03183066       2.77498565       0.00000000
Si       1.08323613       0.18585261      -3.69385616       0.00000000
Si       2.64075302      -2.81115064       0.00915150       0.00000000
Si      -0.09778887       2.68615584       2.77399241       0.00000000
