10
Lattice="16.28999089631971 0.0 0.0 0.0 16.28999089631971 0.0 0.0 0.0 34.24959146834617" Properties=species:S:1:pos:R:3:initial_magmoms:R:1 pbc="T T T"
Si      -1.35606105      -1.35672894      -1.35669558       0.00000000
Si       1.35741646      -1.35705474       1.35717507       0.00000000
Si       1.35692442       1.35739683      -1.35857930       0.00000000
Si      -1.35816246       1.35798327       1.35738057       0.00000000
Si       0.00026064      -2.71326729      -2.71366515       0.00000000
Si       0.00027693       2.71454931       2.71400764       0.00000000
Si       2.71540521       0.00141723       2.71349390       0.00000000
Si       2.71449134      -2.71455420      -0.00023975       0.00000000
Si       0.00081450      -2.71407364       2.71506938       0.00000000
Si      -2.71577106       0.00100998       2.71363090       0.00000000
