10
Lattice="16.28999089631971 0.0 0.0 0.0 16.28999089631971 0.0 0.0 0.0 34.24959146834617" Properties=species:S:1:pos:R:3:initial_magmoms:R:1 pbc="T T T"
Si      -1.29347487       1.34524449       1.39947334       0.00000000
Si      -1.36023129      -1.33804431      -1.36912818       0.00000000
Si       1.35500220       1.37624436      -1.36416199       0.00000000
Si       1.25004573      -1.31955516       1.59695659       0.00000000
Si       2.39335938       0.46638270       2.69729383       0.00000000
Si       0.48549087       2.32484364       2.80336488       0.00000000
Si       2.68858305      -2.67359625       0.00585668       0.00000000
Si      -2.70428661      -2.69316054       0.01534383       0.00000000
Si      -0.00451233      -2.69281845      -2.72637175       0.00000000
Si      -2.70467757       2.73082302      -0.00006850       0.00000000
