10
Lattice="16.28999089631971 0.0 0.0 0.0 16.28999089631971 0.0 0.0 0.0 34.24959146834617" Properties=species:S:1:pos:R:3:initial_magmoms:R:1 pbc="T T T"
Si       1.35607571       1.35700587      -1.35635308       0.00000000
Si      -1.35798875      -1.35847197      -1.35631883       0.00000000
Si       1.35359963      -1.35749457       1.36173027       0.00000000
Si      -1.35751969       1.35725022       1.35984654       0.00000000
Si       0.00122827       2.69192250       2.72691975       0.00000000
Si      -0.00021340       2.71371852      -2.71363090       0.00000000
Si       2.71414043       2.71384884       0.00143848       0.00000000
Si      -2.71512828       2.71313208       0.00051374       0.00000000
Si      -2.71540521      -0.00141723      -2.71349390       0.00000000
Si       2.71479203      -0.00136836      -2.71441864       0.00000000
