10
Lattice="16.28999089631971 0.0 0.0 0.0 16.28999089631971 0.0 0.0 0.0 34.24959146834617" Properties=species:S:1:pos:R:3:initial_magmoms:R:1 pbc="T T T"
Si       1.35874795       1.33467228       1.36707321       0.00000000
Si      -1.35760859       1.35588186      -1.35933280       0.00000000
Si       1.35751969      -1.35725022      -1.35984654       0.00000000
Si      -1.38056120      -1.33843527       1.37251890       0.00000000
Si      -0.01980863       2.72701116       2.64454943       0.00000000
Si      -2.71414205       2.71140534       0.00250022       0.00000000
Si       2.71111932      -2.71474479       0.00188373       0.00000000
Si      -2.71884986      -2.71002069       0.00071924       0.00000000
Si       2.71514295       2.71402803       0.00013700       0.00000000
Si       2.71359540      -0.00024435      -2.71619962       0.00000000
