10
Lattice="16.28999089631971 0.0 0.0 0.0 16.28999089631971 0.0 0.0 0.0 34.24959146834617" Properties=species:S:1:pos:R:3:initial_magmoms:R:1 pbc="T T T"
Si      -1.37855658       1.39233888       1.27747623       0.00000000
Si      -1.35874795      -1.33467228      -1.36707321       0.00000000
Si       1.35639500       1.37935575      -1.36693621       0.00000000
Si       1.32821329      -1.33913574       1.54647267       0.00000000
Si       0.33897046       2.21794866       2.65554356       0.00000000
Si       2.18728274       0.65324529       2.83155231       0.00000000
Si       2.70727582      -2.68475490       0.02236500       0.00000000
Si      -2.73930915      -2.67310755       0.00544569       0.00000000
Si      -0.00122827      -2.69192250      -2.72691975       0.00000000
Si       2.71291216       0.02192634      -2.72548126       0.00000000
