10
Lattice="16.28999089631971 0.0 0.0 0.0 16.28999089631971 0.0 0.0 0.0 34.24959146834617" Properties=species:S:1:pos:R:3:initial_magmoms:R:1 pbc="T T T"
Si      -1.35597960      -1.35809730      -1.35614758       0.00000000
Si       1.35633689       1.35782516      -1.35690107       0.00000000
Si      -1.35690813       1.35732560       1.35720932       0.00000000
Si       1.35810570      -1.35751086       1.35700382       0.00000000
Si      -0.00107514      -2.71420722      -2.71243216       0.00000000
Si       2.71362145       0.00063531       2.71345965       0.00000000
Si      -2.71435383       2.71468845      -0.00054799       0.00000000
Si      -2.71441899      -2.71471221      -0.00020550       0.00000000
Si      -2.71489140      -0.00042354       2.71448714       0.00000000
Si       0.00107514      -2.71533123       2.71441864       0.00000000
