10
Lattice="16.28999089631971 0.0 0.0 0.0 16.28999089631971 0.0 0.0 0.0 34.24959146834617" Properties=species:S:1:pos:R:3:initial_magmoms:R:1 pbc="T T T"
Si      -1.35747828      -1.35702216      -1.35751757       0.00000000
Si       1.35798327       1.35774914      -1.35727782       0.00000000
Si       1.35791811      -1.35718506       1.36149052       0.00000000
Si      -1.36055709       1.35938996       1.36299750       0.00000000
Si       0.00047241      -2.71428867      -2.71469264       0.00000000
Si       2.71489140       0.00042354      -2.71448714       0.00000000
Si       0.00053757       2.71511199      -2.71503513       0.00000000
Si      -2.71490769       0.00065160      -2.71534338       0.00000000
Si      -2.71450044      -2.71629234       0.00051374       0.00000000
Si       2.71596654      -2.71490769      -0.00006850       0.00000000
