10
Lattice="16.28999089631971 0.0 0.0 0.0 16.28999089631971 0.0 0.0 0.0 34.24959146834617" Properties=species:S:1:pos:R:3:initial_magmoms:R:1 pbc="T T T"
Si       1.37901366       1.35472527       1.34059826       0.00000000
Si      -1.35791811       1.35718506      -1.36149052       0.00000000
Si       1.35804843      -1.35772263      -1.36155902       0.00000000
Si      -1.36674729      -1.37401263       1.36703896       0.00000000
Si       2.71292031      -2.71327869      -0.00496619       0.00000000
Si       2.71736748       2.71031994      -0.00410995       0.00000000
Si      -2.71376739      -2.71634121      -0.00448670       0.00000000
Si       0.00006516       2.71493420      -2.71876834       0.00000000
Si       2.71507899       0.00009774      -2.71897384       0.00000000
Si      -0.00009774      -2.71513575      -2.71893959       0.00000000
