10
Lattice="16.28999089631971 0.0 0.0 0.0 16.28999089631971 0.0 0.0 0.0 34.24959146834617" Properties=species:S:1:pos:R:3:initial_magmoms:R:1 pbc="T T T"
Si       1.00543509       1.73276797      -1.15462287       0.00000000
Si      -0.63969201       0.66883482       2.13871693       0.00000000
Si      -1.81462455      -1.05448428      -1.05105205       0.00000000
Si       1.73578095      -1.70587251       0.19960673       0.00000000
Si       2.27548494       0.30797874      -2.48460375       0.00000000
Si      -0.47027601      -2.42075916      -2.45816305       0.00000000
Si      -0.16553898      -1.34879571       3.20768153       0.00000000
Si       2.09890134       2.91769605       0.55422720       0.00000000
Si       2.16023319      -1.78916328       2.51580515       0.00000000
Si       0.83698020       2.28728934       2.95416591       0.00000000
