10
Lattice="16.28999089631971 0.0 0.0 0.0 16.28999089631971 0.0 0.0 0.0 34.24959146834617" Properties=species:S:1:pos:R:3:initial_magmoms:R:1 pbc="T T T"
Si      -1.13526217       1.70684991       1.09352157       0.00000000
Si      -1.36252396      -0.23789916      -1.87335095       0.00000000
Si      -0.40745525      -2.14762473       0.80301637       0.00000000
Si       2.37610338      -0.05401764      -0.37099178       0.00000000
Si       0.01080516      -1.92813327      -2.72842673       0.00000000
Si       1.47858954      -1.96151148       2.28331879       0.00000000
Si       0.75492258       3.05735607       1.38440351       0.00000000
Si       2.18788872      -0.96498702      -2.59786721       0.00000000
Si      -2.73673207      -1.88230950       1.41937236       0.00000000
Si      -3.34245943       0.39457638       1.36101103       0.00000000
