10
Lattice="16.28999089631971 0.0 0.0 0.0 16.28999089631971 0.0 0.0 0.0 34.24959146834617" Properties=species:S:1:pos:R:3:initial_magmoms:R:1 pbc="T T T"
Si       0.70741931       1.98223236       1.31370687       0.00000000
Si      -1.95657465      -0.70581312       1.36501964       0.00000000
Si       1.68599056      -1.88566524      -0.08004134       0.00000000
Si      -0.87333852      -0.51996051      -2.32883652       0.00000000
Si      -0.29814610       1.70624718      -2.41148083       0.00000000
Si       2.02814572       0.62740935       2.76118104       0.00000000
Si      -0.69337090      -2.10339738       2.77355885       0.00000000
Si       3.28886140      -0.71892657       1.21708187       0.00000000
Si       0.68417837      -3.51696376       1.37417114       0.00000000
Si      -3.03884967      -2.34473373      -0.03561960       0.00000000
