10
Lattice="16.28999089631971 0.0 0.0 0.0 16.28999089631971 0.0 0.0 0.0 34.24959146834617" Properties=species:S:1:pos:R:3:initial_magmoms:R:1 pbc="T T T"
Si       1.35652145       1.35767376       1.35755182       0.00000000
Si      -1.35717330      -1.35829278       1.35683257       0.00000000
Si       1.35774158      -1.35770634      -1.35731207       0.00000000
Si      -1.35818328       1.35821133      -1.35710657       0.00000000
Si       2.71403069      -2.71441899      -0.00003425       0.00000000
Si       2.71464971       2.71505430       0.00020550       0.00000000
Si      -2.71512399       2.71489140      -0.00006850       0.00000000
Si      -2.71486335      -0.00076563      -2.71537763       0.00000000
Si       0.00043529      -2.71417464       2.71616537       0.00000000
Si      -2.71561269      -2.71485882       0.00020550       0.00000000
