10
Lattice="16.28999089631971 0.0 0.0 0.0 16.28999089631971 0.0 0.0 0.0 34.24959146834617" Properties=species:S:1:pos:R:3:initial_magmoms:R:1 pbc="T T T"
Si       1.35430173       1.34871426      -1.36655946       0.00000000
Si      -1.35663120      -1.36576989      -1.36765545       0.00000000
Si       1.28954898      -1.31023728       1.49992745       0.00000000
Si      -1.45314945       1.25652915       1.41060446       0.00000000
Si      -0.52574346      -2.09188035       2.83083307       0.00000000
Si      -2.37405573      -0.52717698       2.65482432       0.00000000
Si      -0.15623739       2.60653032       2.79130902       0.00000000
Si       2.69602758      -2.71334385       0.01421359       0.00000000
Si      -2.72690853       2.69431713       0.00972689       0.00000000
Si       2.72101644       2.70985779       0.01188461       0.00000000
