10
Lattice="16.28999089631971 0.0 0.0 0.0 16.28999089631971 0.0 0.0 0.0 34.24959146834617" Properties=species:S:1:pos:R:3:initial_magmoms:R:1 pbc="T T T"
Si      -1.35707488       1.35749946       1.35741482       0.00000000
Si      -1.35875718      -1.35713369      -1.35659283       0.00000000
Si       1.35856971       1.35798816      -1.35642158       0.00000000
Si       1.35808101      -1.35804891       1.35724357       0.00000000
Si      -2.71423070       0.00128691      -2.71342540       0.00000000
Si      -0.00147262      -2.71432355       2.71376790       0.00000000
Si      -2.71367684       0.00048055       2.71530913       0.00000000
Si      -2.71449134       2.71455420       0.00023975       0.00000000
Si       0.00037793       2.71281117      -2.71643937       0.00000000
Si       0.00091387       2.71597143       2.71373365       0.00000000
