10
Lattice="16.28999089631971 0.0 0.0 0.0 16.28999089631971 0.0 0.0 0.0 34.24959146834617" Properties=species:S:1:pos:R:3:initial_magmoms:R:1 pbc="T T T"
Si      -1.33382357      -1.81877850      -0.39274028       0.00000000
Si       0.45800964       0.33537852       2.27461939       0.00000000
Si       1.73682351      -0.87272046      -1.39621963       0.00000000
Si      -1.12978643       2.04721317      -0.57960616       0.00000000
Si       0.88014870       2.94185997      -1.36926518       0.00000000
Si       1.83840795       1.18328931      -2.64396719       0.00000000
Si      -1.75506831       1.23657390       2.76736854       0.00000000
Si       2.27116809       1.89001467       2.23101964       0.00000000
Si      -0.17374914      -3.78732726      -0.35215450       0.00000000
Si       3.71993553      -1.11767319      -0.15134903       0.00000000
