10
Lattice="16.28999089631971 0.0 0.0 0.0 16.28999089631971 0.0 0.0 0.0 34.24959146834617" Properties=species:S:1:pos:R:3:initial_magmoms:R:1 pbc="T T T"
Si       1.37569050       1.33820721       1.36183302       0.00000000
Si      -1.36054732       1.35555606      -1.36286051       0.00000000
Si       1.35685926      -1.36031274      -1.36214126       0.00000000
Si      -1.37081490      -1.37277459       1.37447112       0.00000000
Si      -2.71377458       2.70763209      -0.00445245       0.00000000
Si       2.71586880       2.70961116      -0.00524019       0.00000000
Si       2.71039536      -2.71837746      -0.00181523       0.00000000
Si      -0.00099369       2.71183070      -2.71938483       0.00000000
Si       2.71371852      -0.00198738      -2.71873409       0.00000000
Si      -2.71822175      -2.71596654      -0.00530869       0.00000000
