10
Lattice="10.86 0.0 0.0 0.0 10.86 0.0 0.0 0.0 10.86" Properties=species:S:1:pos:R:3:initial_magmoms:R:1 pbc="T T T"
Si       1.35750000       1.35750000       1.35750000       0.00000000
Si      -1.35750000       1.35750000      -1.35750000       0.00000000
Si      -1.35750000      -1.35750000       1.35750000       0.00000000
Si       1.35750000      -1.35750000      -1.35750000       0.00000000
Si      -0.01330350      -2.61392598      -2.64685350       0.00000000
Si       2.63055264      -2.69248722      -0.10749228       0.00000000
Si      -2.49671400       2.82404526       0.10752486       0.00000000
Si       0.04955418       2.65123008       2.70764778       0.00000000
Si      -0.10369128       2.63788314      -2.76634608       0.00000000
Si      -0.07781190      -2.70264132       2.71210038       0.00000000
