10
Lattice="16.28999089631971 0.0 0.0 0.0 16.28999089631971 0.0 0.0 0.0 34.5300574570662" Properties=species:S:1:pos:R:3:initial_magmoms:R:1 pbc="T T T"
Si      -1.85605817      -1.15750876       1.01262143       0.00000000
Si       1.06277589       1.82511531       1.17844177       0.00000000
Si       0.47306160       1.74017925      -1.62171407       0.00000000
Si       1.38091959      -2.03456887      -0.26989610       0.00000000
Si       2.18790990       0.25482447       2.50755967       0.00000000
Si       2.34848043       0.49717080      -2.36856510       0.00000000
Si      -0.54087687      -2.45665322       2.50323996       0.00000000
Si       3.34621035      -1.18473912       1.00631970       0.00000000
Si       0.66875337      -2.82842360      -2.53893650       0.00000000
Si      -0.54299457       2.97890343       2.48376154       0.00000000
