10
Lattice="16.28999089631971 0.0 0.0 0.0 16.28999089631971 0.0 0.0 0.0 34.5300574570662" Properties=species:S:1:pos:R:3:initial_magmoms:R:1 pbc="T T T"
Si       2.18644380       0.64299888       0.38490677       0.00000000
Si      -0.71465859      -0.32905800       2.26071866       0.00000000
Si       0.69714684      -2.06702181      -1.05948635       0.00000000
Si      -1.43836465       1.60849089      -1.11967227       0.00000000
Si      -1.07992274      -3.20337963      -0.06667758       0.00000000
Si      -0.86482633      -2.65116492       2.25968275       0.00000000
Si       3.35362230       0.35196174      -1.65913566       0.00000000
Si       0.97497279      -1.55629773      -3.34296032       0.00000000
Si      -0.80016154       3.72534285      -0.17534373       0.00000000
Si      -2.94900218       0.33497127       2.44431507       0.00000000
