10
Lattice="16.28999089631971 0.0 0.0 0.0 16.28999089631971 0.0 0.0 0.0 34.5300574570662" Properties=species:S:1:pos:R:3:initial_magmoms:R:1 pbc="T T T"
Si       1.31137921       0.38607300      -1.95592167       0.00000000
Si       0.16102013      -2.32940484       0.52202570       0.00000000
Si      -2.36073607       0.44100288       0.03877728       0.00000000
Si       0.56575496       1.57755618       1.88271790       0.00000000
Si      -2.62600243      -0.63742770       2.26099490       0.00000000
Si      -0.54364780       3.51590232       1.04829860       0.00000000
Si       0.04743811      -0.54444438      -3.75145113       0.00000000
Si      -1.57142041      -2.72635956       2.16362008       0.00000000
Si      -2.69490913       2.82425661       0.18691131       0.00000000
Si       3.53587645      -0.44595504      -1.76631702       0.00000000
