10
Lattice="16.28999089631971 0.0 0.0 0.0 16.28999089631971 0.0 0.0 0.0 34.5300574570662" Properties=species:S:1:pos:R:3:initial_magmoms:R:1 pbc="T T T"
Si      -1.10940276       1.93834614      -0.83441930       0.00000000
Si       2.42307071       0.33334227       0.28425159       0.00000000
Si      -0.56575496      -1.57755618      -1.88271790       0.00000000
Si      -0.88742870       0.12012246       2.44037864       0.00000000
Si       0.68698025      -1.62841356       2.64148924       0.00000000
Si      -2.92649103      -1.13655330      -1.84394063       0.00000000
Si      -3.26066409       1.24670043      -1.69580660       0.00000000
Si      -3.19175739      -2.21498388       0.37827699       0.00000000
Si       3.20974739       2.06443400      -1.20233727       0.00000000
Si       0.74562425      -1.19148318      -3.83863957       0.00000000
