10
Lattice="16.28999089631971 0.0 0.0 0.0 16.28999089631971 0.0 0.0 0.0 34.5300574570662" Properties=species:S:1:pos:R:3:initial_magmoms:R:1 pbc="T T T"
Si       1.05744906       1.63049868      -1.31185083       0.00000000
Si      -1.15830045       1.43956359       1.50123998       0.00000000
Si       1.51918911      -1.28167181       1.46180663       0.00000000
Si      -1.96529076      -0.84982975      -1.27621579       0.00000000
Si       2.17759833      -0.11001940      -2.46940259       0.00000000
Si      -3.34621035       1.18473912      -1.00631970       0.00000000
Si      -2.28343446       3.00985443       0.17212207       0.00000000
Si      -2.65510710      -2.71512665       0.09164628       0.00000000
Si      -2.53941552       0.09529650       2.85832724       0.00000000
Si       0.18164979      -2.61857582       2.85269884       0.00000000
