10
Lattice="16.28999089631971 0.0 0.0 0.0 16.28999089631971 0.0 0.0 0.0 34.5300574570662" Properties=species:S:1:pos:R:3:initial_magmoms:R:1 pbc="T T T"
Si      -1.35764118       1.35737728       1.35689390       0.00000000
Si       1.35738054      -1.35745645       1.35730826       0.00000000
Si       1.35496962       1.36019545      -1.35713561       0.00000000
Si      -1.35889551      -1.35792515      -1.35748091       0.00000000
Si       0.00117288       2.71190707      -2.71154334       0.00000000
Si      -0.00177561       2.71224916       2.71530712       0.00000000
Si       2.71409319      -0.00166972       2.71499634       0.00000000
Si       2.71498914       2.71410622      -0.00013812       0.00000000
Si      -2.71528236       2.71479040      -0.00110496       0.00000000
Si      -2.71536381       0.00045612       2.71475463       0.00000000
