10
Lattice="16.28999089631971 0.0 0.0 0.0 16.28999089631971 0.0 0.0 0.0 34.5300574570662" Properties=species:S:1:pos:R:3:initial_magmoms:R:1 pbc="T T T"
Si       0.32472486       0.92975175       2.22356429       0.00000000
Si      -0.59057766       1.94875641      -1.34539538       0.00000000
Si       1.90886220      -0.86742784      -1.26366269       0.00000000
Si      -1.60023186      -1.86588706      -0.17299568       0.00000000
Si       2.07835965       2.75819022       1.21207475       0.00000000
Si      -1.95069492       0.78475446      -3.02272839       0.00000000
Si      -3.21457086      -0.76324840      -1.73327173       0.00000000
Si       0.79798194      -2.00248802      -3.06803185       0.00000000
Si      -0.37597320      -3.39808490      -1.56925387       0.00000000
Si       0.19546371       3.94498188       0.14278187       0.00000000
