10
Lattice="16.28999089631971 0.0 0.0 0.0 16.28999089631971 0.0 0.0 0.0 34.5300574570662" Properties=species:S:1:pos:R:3:initial_magmoms:R:1 pbc="T T T"
Si      -1.38582288      -1.25704458      -1.40509788       0.00000000
Si       1.26387594       1.54800286      -1.28945666       0.00000000
Si      -1.71287721       0.98045926       1.45775625       0.00000000
Si       1.61433900      -1.10263866       1.56027605       0.00000000
Si      -0.79575021       0.25405721       3.62203240       0.00000000
Si       3.21457086       0.76324840       1.73327173       0.00000000
Si       0.01324377      -2.55511323      -2.73201967       0.00000000
Si      -3.00515314      -2.27523474      -0.08366638       0.00000000
Si       2.62399320       2.71200481       0.38787635       0.00000000
Si       2.70164763       0.20315748      -2.71986509       0.00000000
