10
Lattice="16.28999089631971 0.0 0.0 0.0 16.28999089631971 0.0 0.0 0.0 34.5300574570662" Properties=species:S:1:pos:R:3:initial_magmoms:R:1 pbc="T T T"
Si       0.89854011       1.53344286      -1.48292868       0.00000000
Si       1.52313129       0.01927107       1.76645514       0.00000000
Si      -2.21302908       0.44554779       0.62751508       0.00000000
Si      -0.86662800      -1.90871233      -1.11331873       0.00000000
Si      -2.67006132      -1.86517242       0.43065912       0.00000000
Si      -0.03473028       0.61502895      -3.41972068       0.00000000
Si      -1.93414428      -0.75085497      -2.97234901       0.00000000
Si      -2.23927227       1.40111919       2.73333182       0.00000000
Si       3.53064573      -1.11399165       1.04325721       0.00000000
Si       3.24359964       1.42763931      -1.50930965       0.00000000
