10
Lattice="16.28999089631971 0.0 0.0 0.0 16.28999089631971 0.0 0.0 0.0 34.5300574570662" Properties=species:S:1:pos:R:3:initial_magmoms:R:1 pbc="T T T"
Si      -0.68224149      -1.34281565      -1.79780845       0.00000000
Si       1.89941400       1.36588392      -0.44737167       0.00000000
Si       1.06751628      -1.15785736       1.85903027       0.00000000
Si      -2.08606482       1.38787542      -0.05082827       0.00000000
Si       1.93414428       0.75085497       2.97234901       0.00000000
Si      -0.73591704      -1.11431745       3.40300812       0.00000000
Si      -1.80315639       2.38268943       2.19328142       0.00000000
Si      -0.27888480       1.19640276       3.59986409       0.00000000
Si      -1.81431504      -3.24899882      -1.04287738       0.00000000
Si       2.83268439       2.28429783       1.48942033       0.00000000
