10
Lattice="16.28999089631971 0.0 0.0 0.0 16.28999089631971 0.0 0.0 0.0 34.5300574570662" Properties=species:S:1:pos:R:3:initial_magmoms:R:1 pbc="T T T"
Si       1.96366176      -0.90565558      -0.85707104       0.00000000
Si      -1.33874478       0.61410531      -1.88375381       0.00000000
Si      -0.78667668      -1.73109173       1.48658886       0.00000000
Si       0.89305038       1.59450267       1.65696026       0.00000000
Si       0.90507240      -3.40801691       1.00258078       0.00000000
Si      -0.03670137       2.40996378      -2.80090718       0.00000000
Si       3.01580028      -2.00458454       0.94926634       0.00000000
Si      -3.29819395       1.53931215      -1.04028762       0.00000000
Si       3.22972056       0.77705418      -1.86279405       0.00000000
Si       1.48548510      -2.49818783      -2.50149688       0.00000000
