10
Lattice="16.28999089631971 0.0 0.0 0.0 16.28999089631971 0.0 0.0 0.0 34.5300574570662" Properties=species:S:1:pos:R:3:initial_magmoms:R:1 pbc="T T T"
Si      -1.13207355      -1.90618317       0.75493107       0.00000000
Si       0.68224149       1.34281565       1.79780845       0.00000000
Si      -0.91712700       0.72640205      -2.16427615       0.00000000
Si       2.41008921      -1.35669587      -2.06175635       0.00000000
Si      -1.40382333       2.73069107       1.74698017       0.00000000
Si       0.79575021      -0.25405721      -3.62203240       0.00000000
Si       0.46962441      -3.39479595       1.73275378       0.00000000
Si       2.09921085      -3.24359217      -0.04889459       0.00000000
Si      -1.88668174      -3.04837281      -1.45585710       0.00000000
Si      -2.94505281      -0.58444122      -2.51710448       0.00000000
