10
Lattice="16.28999089631971 0.0 0.0 0.0 16.28999089631971 0.0 0.0 0.0 34.5300574570662" Properties=species:S:1:pos:R:3:initial_magmoms:R:1 pbc="T T T"
Si       1.38639303       1.58285043       1.07616437       0.00000000
Si       1.48954131      -1.17815796      -1.45893027       0.00000000
Si      -1.20811527       1.53932355      -1.46776997       0.00000000
Si      -1.29655368      -1.35454608       1.64000600       0.00000000
Si      -0.51051231       0.64167939       3.12818324       0.00000000
Si      -2.65667094      -2.51854803      -0.03732701       0.00000000
Si       2.81813742       0.27067464       2.44959818       0.00000000
Si      -0.09026289       2.96570853       2.35609073       0.00000000
Si       0.14921640      -2.51056593      -2.84610705       0.00000000
Si       2.64117915      -2.75641461       0.01540041       0.00000000
