10
Lattice="16.28999089631971 0.0 0.0 0.0 16.28999089631971 0.0 0.0 0.0 34.5300574570662" Properties=species:S:1:pos:R:3:initial_magmoms:R:1 pbc="T T T"
Si      -1.33876107      -1.36309833      -1.34321999       0.00000000
Si       1.32810741       1.35021294      -1.36885511       0.00000000
Si       1.35291708      -1.35495333       1.35834416       0.00000000
Si      -1.36197432       1.35646830       1.35713561       0.00000000
Si      -2.52939717       0.10660176      -2.67222049       0.00000000
Si       2.62892907      -0.09244575      -2.65569784       0.00000000
Si       2.71006956      -2.71200807      -0.00252070       0.00000000
Si       2.71191033       0.00123804       2.71472010       0.00000000
Si      -0.00330687      -2.71352304       2.71458198       0.00000000
Si      -0.00319284       2.71617831       2.71458198       0.00000000
