10
Lattice="16.28999089631971 0.0 0.0 0.0 16.28999089631971 0.0 0.0 0.0 34.5300574570662" Properties=species:S:1:pos:R:3:initial_magmoms:R:1 pbc="T T T"
Si      -1.35513252       1.35650088      -1.35834416       0.00000000
Si       1.36036161      -1.36071999      -1.35682484       0.00000000
Si       1.37350764       1.35681039       1.35813698       0.00000000
Si      -1.38870621      -1.34833959       1.36165905       0.00000000
Si       2.68304445      -0.05579325       2.68775211       0.00000000
Si      -0.04847904      -2.70552465       2.67925772       0.00000000
Si      -2.70979263       2.71039536      -0.00359113       0.00000000
Si      -2.71186146      -0.00192222      -2.71527259       0.00000000
Si       0.00343719       2.71239903      -2.71509994       0.00000000
Si       2.71948518       2.70951570      -0.00020718       0.00000000
