10
Lattice="16.28999089631971 0.0 0.0 0.0 16.28999089631971 0.0 0.0 0.0 34.5300574570662" Properties=species:S:1:pos:R:3:initial_magmoms:R:1 pbc="T T T"
Si       1.36378251      -1.29725415      -1.35934553       0.00000000
Si      -1.30953681       1.41260364      -1.32961514       0.00000000
Si      -1.65276711      -1.01156013       1.34049211       0.00000000
Si       1.76712291       1.04317902       1.16583898       0.00000000
Si       0.21207951       2.22122295       2.63499016       0.00000000
Si      -0.20220777      -2.61320922       2.51510173       0.00000000
Si      -2.58483204       2.70635544       0.16574437       0.00000000
Si       2.73927753      -2.58347997      -0.02651910       0.00000000
Si       0.04007340      -2.66199777      -2.68802836       0.00000000
Si      -2.68304445       0.05579325      -2.68775211       0.00000000
