10
Lattice="16.28999089631971 0.0 0.0 0.0 16.28999089631971 0.0 0.0 0.0 34.5300574570662" Properties=species:S:1:pos:R:3:initial_magmoms:R:1 pbc="T T T"
Si       1.65276711       1.01156013      -1.34049211       0.00000000
Si      -1.07875638      -1.63817127      -1.34898651       0.00000000
Si       1.45055934      -1.60164909       1.17460962       0.00000000
Si      -1.66392576       1.90742868       0.36222051       0.00000000
Si      -2.41898355      -0.28098621      -2.66658518       0.00000000
Si       0.34323030       2.42416377      -2.67010725       0.00000000
Si      -2.54988999      -2.82414843       0.13919074       0.00000000
Si       1.86484662       3.23278308       1.29449805       0.00000000
Si       3.41989002       2.05473915      -0.17465313       0.00000000
Si      -0.93206493       3.71791557      -1.17474774       0.00000000
