10
Lattice="16.28999089631971 0.0 0.0 0.0 16.28999089631971 0.0 0.0 0.0 34.5300574570662" Properties=species:S:1:pos:R:3:initial_magmoms:R:1 pbc="T T T"
Si       2.13097635       0.13407159       0.90669076       0.00000000
Si      -0.77704929       1.41876778      -1.67719489       0.00000000
Si      -1.42441389       0.07511971       1.85008698       0.00000000
Si      -0.11582190      -2.08684741      -1.05344358       0.00000000
Si      -3.32121497       1.00557518       0.78562831       0.00000000
Si      -3.10242724       0.99549656      -1.61369408       0.00000000
Si       3.46320513      -0.79363318      -0.78390180       0.00000000
Si       1.00745505      -3.46203292       0.53542337       0.00000000
Si       1.02638403       1.37522786      -3.22117274       0.00000000
Si       2.19662505      -1.37065756       2.75270319       0.00000000
