10
Lattice="16.28999089631971 0.0 0.0 0.0 16.28999089631971 0.0 0.0 0.0 34.5300574570662" Properties=species:S:1:pos:R:3:initial_magmoms:R:1 pbc="T T T"
Si       1.95944917      -0.92520684      -0.84346618       0.00000000
Si      -1.02095620      -1.66540000       1.40820559       0.00000000
Si      -1.05259138       0.33993972      -2.18672070       0.00000000
Si       1.16972626       1.78598673       1.22961603       0.00000000
Si       1.16264011      -2.59172271      -2.36382546       0.00000000
Si      -2.62557400       2.31906069       1.24446397       0.00000000
Si       3.29819395      -1.53931215       1.04028762       0.00000000
Si       3.26149258       0.87065163      -1.76061955       0.00000000
Si      -0.57563810       3.42190998       1.66914938       0.00000000
Si      -0.73416098      -1.66126723      -3.42828414       0.00000000
