10
Lattice="16.28999089631971 0.0 0.0 0.0 16.28999089631971 0.0 0.0 0.0 34.5300574570662" Properties=species:S:1:pos:R:3:initial_magmoms:R:1 pbc="T T T"
Si       1.33753932       1.33690401      -1.39089221       0.00000000
Si      -1.35957969       1.35358837       1.36234965       0.00000000
Si       1.35498591      -1.36304946       1.36076126       0.00000000
Si      -1.34752509      -1.38505725      -1.39729063       0.00000000
Si       2.57689881      -0.24635367      -2.80147692       0.00000000
Si       2.71471221       2.71077722       0.00069060       0.00000000
Si      -0.00068418       2.71151352       2.71983056       0.00000000
Si       2.71428867      -0.00418653       2.71920901       0.00000000
Si      -2.71788876      -2.71624347       0.00151932       0.00000000
Si      -2.72106531       2.71387232       0.00562840       0.00000000
