10
Lattice="16.28999089631971 0.0 0.0 0.0 16.28999089631971 0.0 0.0 0.0 34.5300574570662" Properties=species:S:1:pos:R:3:initial_magmoms:R:1 pbc="T T T"
Si      -1.35237951       1.35464382       1.35720467       0.00000000
Si      -1.34767170      -1.36721060      -1.36140698       0.00000000
Si       1.36148562      -1.36028394       1.35672125       0.00000000
Si       1.38111507       1.34426709      -1.35708726       0.00000000
Si       2.53941552      -0.09529650      -2.85832724       0.00000000
Si      -2.70677409       2.70795186      -0.00383284       0.00000000
Si      -2.70989363      -0.00316678       2.71358061       0.00000000
Si       0.00509877       2.71243161       2.71309719       0.00000000
Si      -2.70734750      -2.71862900      -0.00345301       0.00000000
Si       0.00356751      -2.71680452       2.71423668       0.00000000
