10
Lattice="16.28999089631971 0.0 0.0 0.0 16.28999089631971 0.0 0.0 0.0 34.5300574570662" Properties=species:S:1:pos:R:3:initial_magmoms:R:1 pbc="T T T"
Si      -1.35700587       1.35787968      -1.36228059       0.00000000
Si       1.35801585      -1.35749457      -1.36172811       0.00000000
Si       1.34949618       1.36373268       1.37453877       0.00000000
Si      -1.33890768      -1.39453803       1.36238418       0.00000000
Si       2.66040135      -0.07866441       2.75964373       0.00000000
Si      -2.73797433      -0.09646938       2.68930597       0.00000000
Si      -2.71249677      -2.71775844      -0.00808004       0.00000000
Si       2.71761183       2.71656017      -0.00383284       0.00000000
Si       0.00071676       2.71480085      -2.72014133       0.00000000
Si      -2.71489140       0.00016290      -2.72041757       0.00000000
