10
Lattice="16.28999089631971 0.0 0.0 0.0 16.28999089631971 0.0 0.0 0.0 34.5300574570662" Properties=species:S:1:pos:R:3:initial_magmoms:R:1 pbc="T T T"
Si       0.85678884       1.67000193       1.47964832       0.00000000
Si      -2.06987256       0.53986689      -1.06880947       0.00000000
Si       1.94642694      -0.22253769      -1.46376448       0.00000000
Si      -0.76966992      -2.26787751       0.61263262       0.00000000
Si       0.87123807      -0.89389746      -3.41809777       0.00000000
Si      -2.39435307       0.21530493       2.76061058       0.00000000
Si       2.90610342      -2.19716262      -0.42033462       0.00000000
Si      -0.94863186       2.06350317       2.91440754       0.00000000
Si      -1.27102725      -1.97109000       2.89562318       0.00000000
Si      -3.69945900       0.38866311       0.71283890       0.00000000
