10
Lattice="16.28999089631971 0.0 0.0 0.0 16.28999089631971 0.0 0.0 0.0 34.5300574570662" Properties=species:S:1:pos:R:3:initial_magmoms:R:1 pbc="T T T"
Si       2.06987256      -0.53986689       1.06880947       0.00000000
Si      -1.62958644      -0.15120378       1.78164837       0.00000000
Si      -1.10760597      -1.98669582      -1.02834022       0.00000000
Si       0.31087836       1.88689629      -2.01286176       0.00000000
Si       1.30020264      -2.80774440       1.68144209       0.00000000
Si      -0.94325616      -3.30167349       0.96111016       0.00000000
Si      -3.23128440       1.33740900       0.80382566       0.00000000
Si       1.53513702       0.35469846      -3.40911995       0.00000000
Si      -0.32448051      -0.32456196       3.82942004       0.00000000
Si      -2.09921085       3.24359217       0.04889459       0.00000000
