10
Lattice="16.28999089631971 0.0 0.0 0.0 16.28999089631971 0.0 0.0 0.0 34.5300574570662" Properties=species:S:1:pos:R:3:initial_magmoms:R:1 pbc="T T T"
Si      -1.69174908       1.67692518       0.48400809       0.00000000
Si      -0.56979162      -1.95950781      -1.43265288       0.00000000
Si       2.11072788       1.40343237      -0.05331444       0.00000000
Si       1.05858936       2.50236133      -1.85965181       0.00000000
Si      -0.90507240       3.40801691      -1.00258078       0.00000000
Si       0.58041270       0.90982908      -3.50407766       0.00000000
Si      -1.14469830      -0.67992831      -3.44927843       0.00000000
Si       3.17296620      -2.09556189      -0.02638098       0.00000000
Si      -0.97958286       2.47077990       2.75304849       0.00000000
Si       1.45399653      -3.28955373      -1.45005604       0.00000000
