10
Lattice="16.28999089631971 0.0 0.0 0.0 16.28999089631971 0.0 0.0 0.0 34.5300574570662" Properties=species:S:1:pos:R:3:initial_magmoms:R:1 pbc="T T T"
Si       1.35671265       1.35578672       1.35768809       0.00000000
Si      -1.35738054       1.35745645      -1.35730826       0.00000000
Si      -1.35772263      -1.35746169       1.35799886       0.00000000
Si       1.35759231      -1.35824361      -1.35792980       0.00000000
Si       2.71415835      -0.00180789      -2.71409856       0.00000000
Si       2.71466334       2.71431245       0.00034530       0.00000000
Si      -2.71502172       2.71483373      -0.00041436       0.00000000
Si       2.71474479      -2.71534722      -0.00048342       0.00000000
Si      -2.71500543      -2.71572189       0.00013812       0.00000000
Si      -2.71627605      -0.00046870      -2.71478916       0.00000000
