10
Lattice="16.28999089631971 0.0 0.0 0.0 16.28999089631971 0.0 0.0 0.0 34.5300574570662" Properties=species:S:1:pos:R:3:initial_magmoms:R:1 pbc="T T T"
Si      -1.35671265      -1.35578672      -1.35768809       0.00000000
Si       1.35988920      -1.35542804       1.35758450       0.00000000
Si       1.35795069       1.35852573      -1.35734279       0.00000000
Si      -1.35483930       1.36080633       1.35820604       0.00000000
Si       2.69187363      -0.00670334       2.73384977       0.00000000
Si      -2.71443528      -2.71324841       0.00031077       0.00000000
Si      -0.00563634      -2.70705821       2.72062475       0.00000000
Si      -2.71409319       0.00166972      -2.71499634       0.00000000
Si       2.71384884      -2.71574078      -0.00020718       0.00000000
Si       0.00087966      -2.71403033      -2.71561789       0.00000000
