10
Lattice="16.28999089631971 0.0 0.0 0.0 16.28999089631971 0.0 0.0 0.0 34.5300574570662" Properties=species:S:1:pos:R:3:initial_magmoms:R:1 pbc="T T T"
Si      -0.67644225       2.20980366      -0.25265657       0.00000000
Si       2.30550741      -0.11681559      -0.42924338       0.00000000
Si      -0.38939616      -0.33182730       2.29991029       0.00000000
Si      -0.82927503      -1.30834764      -1.85827061       0.00000000
Si      -0.10096542      -2.70067039       2.28616732       0.00000000
Si       2.39396211       1.43146746      -2.23081561       0.00000000
Si       0.45129816       2.88816813      -2.22449660       0.00000000
Si      -3.02150178       2.31560721      -0.22627559       0.00000000
Si      -2.20138173       0.12743667      -3.17870075       0.00000000
Si      -0.22489974       3.46379157       1.71175949       0.00000000
