10
Lattice="16.28999089631971 0.0 0.0 0.0 16.28999089631971 0.0 0.0 0.0 34.5300574570662" Properties=species:S:1:pos:R:3:initial_magmoms:R:1 pbc="T T T"
Si      -1.12014927       1.74051808       1.15755176       0.00000000
Si       1.73133378      -1.19778156       1.12416118       0.00000000
Si       0.84501117       1.88323477      -1.19950581       0.00000000
Si      -1.05257835      -1.80715788      -1.61317613       0.00000000
Si      -2.17759833       0.11001940       2.46940259       0.00000000
Si       2.49184872      -2.22211305      -0.93524713       0.00000000
Si       2.29873077       0.88355005      -2.73954723       0.00000000
Si      -3.17532825       1.79192932      -0.90548220       0.00000000
Si       0.58095027      -2.75491008       2.52062451       0.00000000
Si       0.56878164       2.87793475       2.61485018       0.00000000
