10
Lattice="16.28999089631971 0.0 0.0 0.0 16.28999089631971 0.0 0.0 0.0 34.5300574570662" Properties=species:S:1:pos:R:3:initial_magmoms:R:1 pbc="T T T"
Si       0.67644225      -2.20980366       0.25265657       0.00000000
Si      -2.34505953       0.10580355       0.02638098       0.00000000
Si       1.12774041       0.67836447      -1.97184003       0.00000000
Si       0.45154251       1.25398791       1.96441607       0.00000000
Si      -0.52005825       3.25197270       1.15534184       0.00000000
Si      -2.62464480       2.43001188       0.31543225       0.00000000
Si       0.28704609      -2.54163096       2.55256686       0.00000000
Si       3.07040436      -0.77833620      -1.97815904       0.00000000
Si       2.98194966      -2.32661925      -0.17658681       0.00000000
Si      -3.24359964      -1.42763931       1.50930965       0.00000000
