10
Lattice="16.28999089631971 0.0 0.0 0.0 16.28999089631971 0.0 0.0 0.0 34.5300574570662" Properties=species:S:1:pos:R:3:initial_magmoms:R:1 pbc="T T T"
Si      -1.35868374      -1.34628705      -1.33706327       0.00000000
Si       1.35226548      -1.35656604       1.35868946       0.00000000
Si      -1.36058967       1.35694071       1.35820604       0.00000000
Si       1.36764324       1.35031068      -1.38783630       0.00000000
Si      -0.12023649       2.63585232      -2.75251673       0.00000000
Si       2.70958086      -2.71290402      -0.00466156       0.00000000
Si       2.71145421       0.00102627       2.71551430       0.00000000
Si       2.70855459       2.72025081      -0.00089778       0.00000000
Si      -0.00273672      -2.71347417       2.71589413       0.00000000
Si      -2.71524978       2.71643895       0.00096684       0.00000000
