10
Lattice="16.28999089631971 0.0 0.0 0.0 16.28999089631971 0.0 0.0 0.0 34.5300574570662" Properties=species:S:1:pos:R:3:initial_magmoms:R:1 pbc="T T T"
Si      -1.48708545      -1.12963005      -1.45777839       0.00000000
Si       1.29004094      -1.39530366       1.43341255       0.00000000
Si      -1.41924517       1.32208011       1.42708318       0.00000000
Si       1.70732558       1.14987852      -1.29210308       0.00000000
Si      -2.62106493       2.70055620      -0.11467784       0.00000000
Si      -2.73952581      -2.68509699      -0.11382149       0.00000000
Si       2.64007469      -0.03425787       2.81167365       0.00000000
Si       2.89581140      -2.54909178       0.12809277       0.00000000
Si      -0.07041353       2.67639813       2.80846236       0.00000000
Si      -0.06694376      -2.75569785       2.81046510       0.00000000
