10
Lattice="16.28999089631971 0.0 0.0 0.0 16.28999089631971 0.0 0.0 0.0 34.5300574570662" Properties=species:S:1:pos:R:3:initial_magmoms:R:1 pbc="T T T"
Si      -1.35291708       1.35495333      -1.35834416       0.00000000
Si      -1.35622395      -1.35856971       1.35623782       0.00000000
Si       1.35899325       1.35619137       1.35637594       0.00000000
Si       1.35715248      -1.35705474      -1.36086485       0.00000000
Si      -2.69167815      -0.00814500      -2.70156415       0.00000000
Si      -0.02865411      -2.71508688      -2.69666433       0.00000000
Si       2.71793763       0.00913869      -2.69706488       0.00000000
Si      -2.71489140       2.71142163      -0.00120855       0.00000000
Si      -2.71389771      -0.00120546       2.71354608       0.00000000
Si       0.00112401       2.71401174       2.71358061       0.00000000
