10
Lattice="16.28999089631971 0.0 0.0 0.0 16.28999089631971 0.0 0.0 0.0 34.5300574570662" Properties=species:S:1:pos:R:3:initial_magmoms:R:1 pbc="T T T"
Si      -1.35736425       1.35729909      -1.35748091       0.00000000
Si       1.35856971       1.35654975       1.35713561       0.00000000
Si       1.35752715      -1.35694071      -1.35796433       0.00000000
Si      -1.36026387      -1.35742941       1.35761903       0.00000000
Si      -2.71036278      -0.00048870       2.71492728       0.00000000
Si       2.71560816       0.00047241       2.71002401       0.00000000
Si       2.71252935      -0.00003258      -2.71516900       0.00000000
Si      -0.00032580       2.71347417      -2.71565242       0.00000000
Si       2.71508688      -2.71448415       0.00017265       0.00000000
Si      -0.00004887      -2.71471221      -2.71492728       0.00000000
