10
Lattice="16.28999089631971 0.0 0.0 0.0 16.28999089631971 0.0 0.0 0.0 34.5300574570662" Properties=species:S:1:pos:R:3:initial_magmoms:R:1 pbc="T T T"
Si       1.34998488       1.34511417      -1.37243243       0.00000000
Si      -1.36674729      -1.36363590      -1.37291585       0.00000000
Si       1.24838415      -1.44889776       1.42070548       0.00000000
Si      -1.29482694       1.43984052       1.39370296       0.00000000
Si      -2.34556452      -0.37753704       2.48098601       0.00000000
Si      -0.62705097      -2.28359736       2.76865608       0.00000000
Si       2.67926517      -2.72662020      -0.01567665       0.00000000
Si       2.69263926       2.71538010      -0.00265882       0.00000000
Si      -0.00672777       2.70324405      -2.73036223       0.00000000
Si      -2.72621295       2.71192662      -0.00953030       0.00000000
