10
Lattice="16.28999089631971 0.0 0.0 0.0 16.28999089631971 0.0 0.0 0.0 34.5300574570662" Properties=species:S:1:pos:R:3:initial_magmoms:R:1 pbc="T T T"
Si       1.35365013      -1.35505107       1.35893117       0.00000000
Si      -1.35584928       1.35317772       1.35903476       0.00000000
Si       1.35785295       1.35643572      -1.35647954       0.00000000
Si      -1.35708732      -1.35852084      -1.35623782       0.00000000
Si      -0.02850750      -2.70938538       2.68764852       0.00000000
Si      -2.70182682       0.00047241       2.71737892       0.00000000
Si       2.71366965       2.71182888       0.00148479       0.00000000
Si       0.00070047       2.71353933      -2.71392591       0.00000000
Si      -2.71432125      -0.00140094      -2.71358061       0.00000000
Si       2.71487511      -0.00099369      -2.71396044       0.00000000
