10
Lattice="16.28999089631971 0.0 0.0 0.0 16.28999089631971 0.0 0.0 0.0 34.5300574570662" Properties=species:S:1:pos:R:3:initial_magmoms:R:1 pbc="T T T"
Si       2.12571468       0.52874082      -0.97316115       0.00000000
Si      -0.95967648       1.97462493      -1.04342986       0.00000000
Si       0.68569497      -0.49866948       2.33644311       0.00000000
Si      -0.84123189      -1.84176369      -1.49677524       0.00000000
Si      -2.31801813      -2.02154013       0.40811098       0.00000000
Si      -0.56716893      -2.52307665       1.99297244       0.00000000
Si       3.00576564       1.40957370       1.01642734       0.00000000
Si       1.33695288      -3.05209440      -1.40330232       0.00000000
Si      -2.90610342       2.19716262       0.42033462       0.00000000
Si       3.19792248      -1.63955592      -1.15655039       0.00000000
