10
Lattice="16.28999089631971 0.0 0.0 0.0 16.28999089631971 0.0 0.0 0.0 34.5300574570662" Properties=species:S:1:pos:R:3:initial_magmoms:R:1 pbc="T T T"
Si       0.75109932       2.11154238      -0.84218857       0.00000000
Si       2.26224117      -0.89427213       0.13919074       0.00000000
Si      -1.71896967      -1.19399184      -1.42367506       0.00000000
Si      -0.10353924       0.59008896       2.48816827       0.00000000
Si       1.64761947      -1.16051589       2.91111893       0.00000000
Si      -1.06223832       3.49899426      -0.02693346       0.00000000
Si       3.48123816       1.03353534       0.92844470       0.00000000
Si      -3.17296620       2.09556189       0.02638098       0.00000000
Si      -0.89391375      -0.98345988      -3.58729514       0.00000000
Si      -3.74275782       0.13605408      -1.40627191       0.00000000
