10
Lattice="16.28999089631971 0.0 0.0 0.0 16.28999089631971 0.0 0.0 0.0 34.5300574570662" Properties=species:S:1:pos:R:3:initial_magmoms:R:1 pbc="T T T"
Si       1.35656604       1.35643572      -1.35616876       0.00000000
Si       1.35715248      -1.35710361       1.35744638       0.00000000
Si      -1.35759231       1.35824361       1.35792980       0.00000000
Si      -1.35930276      -1.35886293      -1.35844775       0.00000000
Si      -0.00070047      -2.71353933       2.71392591       0.00000000
Si       2.71296918      -0.00171045       2.71541071       0.00000000
Si       2.71417464      -2.71453302      -0.00003453       0.00000000
Si       0.00245979      -2.71420722      -2.71492728       0.00000000
Si      -0.00087966       2.71403033       2.71561789       0.00000000
Si      -2.71502172      -2.71494027       0.00034530       0.00000000
