10
Lattice="16.28999089631971 0.0 0.0 0.0 16.28999089631971 0.0 0.0 0.0 34.5300574570662" Properties=species:S:1:pos:R:3:initial_magmoms:R:1 pbc="T T T"
Si       0.35717454       1.36055776       2.00840738       0.00000000
Si       1.69587045      -0.92149272      -1.57940571       0.00000000
Si      -1.36287027       1.55117194      -1.44266661       0.00000000
Si      -1.16654319      -2.09658816       1.26590714       0.00000000
Si      -2.24173206      -2.76794793      -0.68842614       0.00000000
Si       0.98717400       3.44902373       1.08206902       0.00000000
Si       0.36404892      -2.12861430      -3.24486037       0.00000000
Si      -3.27173247       2.41859978      -0.17900392       0.00000000
Si      -2.47375053       0.41611176      -3.24703577       0.00000000
Si       3.17928672      -2.55539601      -0.52668726       0.00000000
