10
Lattice="16.28999089631971 0.0 0.0 0.0 16.28999089631971 0.0 0.0 0.0 34.5300574570662" Properties=species:S:1:pos:R:3:initial_magmoms:R:1 pbc="T T T"
Si      -1.80542070       0.39350124       1.43475922       0.00000000
Si       0.68128038       2.11661576      -0.84432944       0.00000000
Si      -0.85678884      -1.67000193      -1.47964832       0.00000000
Si       1.92971340      -0.58357296       1.32778504       0.00000000
Si       1.40958999       0.72429300       3.30010850       0.00000000
Si       1.08963810      -1.89253962      -2.94341280       0.00000000
Si      -0.83929338       0.12955437       3.59454646       0.00000000
Si       2.61335583       1.56460630      -2.20091256       0.00000000
Si      -3.25114191      -1.45469700       1.28096226       0.00000000
Si       1.51055541       3.42496340       1.01394117       0.00000000
