10
Lattice="16.28999089631971 0.0 0.0 0.0 16.28999089631971 0.0 0.0 0.0 34.5300574570662" Properties=species:S:1:pos:R:3:initial_magmoms:R:1 pbc="T T T"
Si       1.35697329      -1.35232479       1.36086485       0.00000000
Si      -1.35746199      -1.35536122      -1.35751544       0.00000000
Si       1.35803766       1.35978820      -1.35723920       0.00000000
Si      -1.35752715       1.36092850       1.36210794       0.00000000
Si       0.00000000      -2.71245834      -2.71565242       0.00000000
Si       2.71642822      -2.71310994      -0.00065607       0.00000000
Si       0.01402569       2.71527910       2.71427121       0.00000000
Si      -2.71419093       0.00213888      -2.71613584       0.00000000
Si      -0.01697418      -2.70310788       2.72746170       0.00000000
Si       2.71543290       0.00135859      -2.71565242       0.00000000
