10
Lattice="16.28999089631971 0.0 0.0 0.0 16.28999089631971 0.0 0.0 0.0 34.5300574570662" Properties=species:S:1:pos:R:3:initial_magmoms:R:1 pbc="T T T"
Si      -1.06359039      -1.71566999      -1.29377292       0.00000000
Si      -1.09211418       1.51659900       1.54214776       0.00000000
Si       1.75886370       1.11503421      -1.24000959       0.00000000
Si       2.09001419      -0.86249360       1.08586732       0.00000000
Si       0.26358849      -1.05224278       2.58015640       0.00000000
Si      -2.46995496       2.38565421      -0.18615164       0.00000000
Si      -2.34269748      -0.34363429      -2.74165356       0.00000000
Si       0.40964463       2.37785130      -2.76119759       0.00000000
Si      -2.27699991      -3.10895369       0.31380934       0.00000000
Si       2.82566407      -2.80734434      -0.10272698       0.00000000
