10
Lattice="16.28999089631971 0.0 0.0 0.0 16.28999089631971 0.0 0.0 0.0 34.5300574570662" Properties=species:S:1:pos:R:3:initial_magmoms:R:1 pbc="T T T"
Si       1.13697684      -1.22458772      -1.64946724       0.00000000
Si      -2.23524864       0.11587566      -0.75389517       0.00000000
Si       0.57290301       2.18244135      -0.74698915       0.00000000
Si       0.78092631      -0.87033397       2.15336465       0.00000000
Si       2.90055246       1.82665146      -0.58017435       0.00000000
Si      -2.16951849      -1.57879652      -2.31165052       0.00000000
Si      -0.25322805      -0.95163574      -3.52400151       0.00000000
Si      -2.67154371       0.63352299       2.46972921       0.00000000
Si       3.21898286      -0.17455549      -1.82173779       0.00000000
Si      -0.11554497       3.64057554       0.95057848       0.00000000
