10
Lattice="16.28999089631971 0.0 0.0 0.0 16.28999089631971 0.0 0.0 0.0 34.5300574570662" Properties=species:S:1:pos:R:3:initial_magmoms:R:1 pbc="T T T"
Si      -0.32677740       1.96867908      -1.42225933       0.00000000
Si       1.30890150       1.42912170       1.57061232       0.00000000
Si      -1.44718731      -1.29724112       1.62470369       0.00000000
Si      -1.04089842      -1.93494738      -2.33861851       0.00000000
Si       2.56134186       2.98458864       0.22665542       0.00000000
Si      -2.62081665       2.48570739      -1.69898337       0.00000000
Si       2.61656496       0.01361844       3.09560899       0.00000000
Si      -0.08444736      -2.70774728       3.10359925       0.00000000
Si      -0.09461232       2.71603170       3.10623044       0.00000000
Si      -3.15338562      -2.75252849       0.29516310       0.00000000
