10
Lattice="16.28999089631971 0.0 0.0 0.0 16.28999089631971 0.0 0.0 0.0 34.5300574570662" Properties=species:S:1:pos:R:3:initial_magmoms:R:1 pbc="T T T"
Si      -1.35586557      -1.35055503       1.38770163       0.00000000
Si       1.35552348       1.36291914       1.38552624       0.00000000
Si      -1.44616104       1.38816864      -1.36542973       0.00000000
Si       1.40351382      -1.28691000      -1.53561812       0.00000000
Si       2.71117728      -2.70241326      -0.01062145       0.00000000
Si      -2.71604799      -2.71026504       0.01560414       0.00000000
Si      -2.71274112       2.72953611       0.05312452       0.00000000
Si       2.72379446       2.72026710       0.00528655       0.00000000
Si       0.00032580      -2.70982521       2.74784135       0.00000000
Si       2.71568961       0.00431685       2.74753058       0.00000000
