10
Lattice="16.28999089631971 0.0 0.0 0.0 16.28999089631971 0.0 0.0 0.0 34.5300574570662" Properties=species:S:1:pos:R:3:initial_magmoms:R:1 pbc="T T T"
Si       1.15707870       1.56542013       1.31514703       0.00000000
Si       1.32312267      -1.32835176      -1.47919943       0.00000000
Si      -1.32503837      -1.21213890       1.61517887       0.00000000
Si      -1.39425133       1.38587175      -1.45827420       0.00000000
Si       2.59111998      -2.69633709      -0.04285183       0.00000000
Si      -2.74470946      -2.59719615       0.02565585       0.00000000
Si       2.62821231       2.75139729      -0.17303021       0.00000000
Si       1.02613968       0.72088137       3.61315817       0.00000000
Si       2.68007967       0.02601513      -2.85415255       0.00000000
Si      -0.03859101      -2.68755678      -2.84966364       0.00000000
