10
Lattice="16.28999089631971 0.0 0.0 0.0 16.28999089631971 0.0 0.0 0.0 34.5300574570662" Properties=species:S:1:pos:R:3:initial_magmoms:R:1 pbc="T T T"
Si       1.01890692       2.04415065      -0.72813573       0.00000000
Si      -0.10293651       0.14222799       2.40774772       0.00000000
Si      -2.25100107       0.36139365      -0.85230588       0.00000000
Si       0.78711651      -2.15752905      -0.94919728       0.00000000
Si      -1.32739065      -3.21562971      -0.97771912       0.00000000
Si      -1.84564071       1.29867138      -3.06412995       0.00000000
Si      -0.02642238       3.76230582       0.63324708       0.00000000
Si      -3.27005460      -1.75892904      -0.97140012       0.00000000
Si       0.01532889       2.71120986      -2.81737802       0.00000000
Si       1.87457175      -0.41394519       3.54416708       0.00000000
