10
Lattice="16.28999089631971 0.0 0.0 0.0 16.28999089631971 0.0 0.0 0.0 34.5300574570662" Properties=species:S:1:pos:R:3:initial_magmoms:R:1 pbc="T T T"
Si      -2.29183100      -0.70353252       0.40500327       0.00000000
Si       0.07683993       1.94209380      -1.49401283       0.00000000
Si       0.28290843       0.99481401       2.24410969       0.00000000
Si       2.08606482      -1.38787542       0.05082827       0.00000000
Si       1.40382333      -2.73069107      -1.74698017       0.00000000
Si      -2.37230360      -1.13484285       2.76081776       0.00000000
Si       0.64894473       3.31361406       2.02708816       0.00000000
Si       0.36893592       3.96728289      -0.22448003       0.00000000
Si       3.98547882      -0.02199150      -0.39654340       0.00000000
Si      -3.84127064       1.07038332      -0.43576957       0.00000000
