10
Lattice="16.28999089631971 0.0 0.0 0.0 16.28999089631971 0.0 0.0 0.0 34.5300574570662" Properties=species:S:1:pos:R:3:initial_magmoms:R:1 pbc="T T T"
Si       2.04993590       1.10284929       0.42468541       0.00000000
Si      -1.44311481      -0.16519689      -1.90043183       0.00000000
Si      -1.73990232      -0.53237349       1.76500487       0.00000000
Si      -0.29100456       1.80312381       1.85353999       0.00000000
Si      -3.43422522      -0.82619622      -0.75938545       0.00000000
Si       1.14821694       0.48353607       3.41391963       0.00000000
Si       2.62557400      -2.31906069      -1.24446397       0.00000000
Si       3.79530026      -0.53307396      -0.01484793       0.00000000
Si       2.52724919       2.64885174      -1.31773679       0.00000000
Si      -1.93649004       1.93165191      -2.84931834       0.00000000
