10
Lattice="16.28999089631971 0.0 0.0 0.0 16.28999089631971 0.0 0.0 0.0 34.5300574570662" Properties=species:S:1:pos:R:3:initial_magmoms:R:1 pbc="T T T"
Si       1.34091135       1.36994013       1.38693852       0.00000000
Si      -1.36764324      -1.35031068       1.38783630       0.00000000
Si      -1.48787973       1.28554164      -1.36468043       0.00000000
Si       1.50838884      -1.32739065      -1.53882596       0.00000000
Si       0.08034228       2.52501516      -2.61706076       0.00000000
Si      -0.14612130      -2.52595998      -2.82177512       0.00000000
Si       2.69384472       2.71225242       0.01786931       0.00000000
Si       2.71020860      -2.70586674       0.00293506       0.00000000
Si      -2.72632698      -2.69659773       0.05077302       0.00000000
Si       2.70194738       0.01039302       2.74642217       0.00000000
