10
Lattice="16.28999089631971 0.0 0.0 0.0 16.28999089631971 0.0 0.0 0.0 34.5300574570662" Properties=species:S:1:pos:R:3:initial_magmoms:R:1 pbc="T T T"
Si       1.27366623      -1.30161987       1.43942078       0.00000000
Si      -1.32590826      -1.35513252      -1.36210794       0.00000000
Si       1.38947184       1.35762489      -1.35057489       0.00000000
Si      -1.43088102       1.27772244       1.43638213       0.00000000
Si       2.09563912       0.63232893       2.70867734       0.00000000
Si       0.27782595       2.35372581       2.63730367       0.00000000
Si      -2.67170661      -2.70425403       0.01060073       0.00000000
Si      -2.68294671       0.00094482      -2.71499634       0.00000000
Si      -2.67926517       2.72662020       0.01567665       0.00000000
Si       0.03145599      -2.71213839      -2.71530712       0.00000000
