10
Lattice="16.28999089631971 0.0 0.0 0.0 16.28999089631971 0.0 0.0 0.0 34.5300574570662" Properties=species:S:1:pos:R:3:initial_magmoms:R:1 pbc="T T T"
Si       1.82162925       0.03837924      -1.50844640       0.00000000
Si       0.29209599       2.02518909       1.26953280       0.00000000
Si      -0.07683993      -1.94209380       1.49401283       0.00000000
Si      -1.64541055       0.16030989      -2.09639002       0.00000000
Si       1.26123696       2.30935185      -1.81911350       0.00000000
Si      -1.14189642       2.70949941      -1.86593629       0.00000000
Si       2.35519191       2.77324218       0.37551458       0.00000000
Si       0.57210480       1.37152026       3.52110099       0.00000000
Si       0.20606850      -0.94727979       3.73812252       0.00000000
Si      -1.42217076       3.57168024       0.52723974       0.00000000
