10
Lattice="16.28999089631971 0.0 0.0 0.0 16.28999089631971 0.0 0.0 0.0 34.5300574570662" Properties=species:S:1:pos:R:3:initial_magmoms:R:1 pbc="T T T"
Si      -1.56959037       1.11689127       1.33476012       0.00000000
Si       1.04762619       1.80610488      -1.06646142       0.00000000
Si      -0.20701332      -1.92792150      -1.37926939       0.00000000
Si       1.29920895      -1.52254485       1.99563126       0.00000000
Si       1.77049494      -2.48409468      -0.24285003       0.00000000
Si       1.70282628       0.67119687       2.86078233       0.00000000
Si       3.26931896       1.13774247      -0.67444146       0.00000000
Si      -0.13049919       1.69215633      -3.15377003       0.00000000
Si      -1.68731820      -3.28083858      -0.14374871       0.00000000
Si      -0.37390437       1.73170845       3.32276023       0.00000000
