10
Lattice="16.28999089631971 0.0 0.0 0.0 16.28999089631971 0.0 0.0 0.0 34.5300574570662" Properties=species:S:1:pos:R:3:initial_magmoms:R:1 pbc="T T T"
Si       0.91388529      -0.33036120       2.10933880       0.00000000
Si      -2.07673065       1.06051158       0.46197790       0.00000000
Si       1.78158910       1.01876031      -1.20886346       0.00000000
Si      -0.40361733      -2.19374172      -0.86515107       0.00000000
Si      -1.70282628      -0.67119687      -2.86078233       0.00000000
Si       1.70875651      -3.06844956      -0.06187790       0.00000000
Si      -3.27241665       0.44569440      -1.52602221       0.00000000
Si      -2.20043691      -2.97266436       0.57886221       0.00000000
Si       3.80052935      -0.01410714      -0.46636322       0.00000000
Si       2.26330232      -2.25546453       2.11044376       0.00000000
