10
Lattice="16.28999089631971 0.0 0.0 0.0 16.28999089631971 0.0 0.0 0.0 34.5300574570662" Properties=species:S:1:pos:R:3:initial_magmoms:R:1 pbc="T T T"
Si       1.73454291       0.47548881      -1.55347362       0.00000000
Si      -1.96522560      -1.05248061      -1.02098531       0.00000000
Si       1.13355594       1.96480206       1.04443123       0.00000000
Si       0.26570619      -2.29534245       1.61890812       0.00000000
Si      -2.79282276       1.07215893      -1.53199592       0.00000000
Si      -2.92428306       0.01000206       2.00056906       0.00000000
Si      -1.08356193      -0.98331327       3.23943915       0.00000000
Si       3.08395994      -1.44961452      -1.55236866       0.00000000
Si       2.86599648       2.36175678      -0.59716315       0.00000000
Si       0.82065762       0.80585001      -3.66281242       0.00000000
