10
Lattice="16.28999089631971 0.0 0.0 0.0 16.28999089631971 0.0 0.0 0.0 34.5300574570662" Properties=species:S:1:pos:R:3:initial_magmoms:R:1 pbc="T T T"
Si       1.34719929       1.35607475       1.38833008       0.00000000
Si      -1.36586763      -1.36039419       1.38946957       0.00000000
Si       1.45419201      -1.34346888      -1.44816725       0.00000000
Si      -1.36273995       1.41050616      -1.47889556       0.00000000
Si       2.70101232       2.72136572      -0.00799026       0.00000000
Si       2.69726562      -2.72782566       0.02285200       0.00000000
Si      -2.72621295       2.71351394       0.01823533       0.00000000
Si      -2.72616408      -2.71652040       0.03113577       0.00000000
Si       2.70568755      -0.00280188       2.75116315       0.00000000
Si      -0.00983916       2.71395377       2.75047255       0.00000000
