10
Lattice="16.28999089631971 0.0 0.0 0.0 16.28999089631971 0.0 0.0 0.0 34.5300574570662" Properties=species:S:1:pos:R:3:initial_magmoms:R:1 pbc="T T T"
Si       1.31114952      -1.38676770       1.34946993       0.00000000
Si      -1.34265438      -1.37026593      -1.36977361       0.00000000
Si       1.37394747       1.35078309      -1.36659685       0.00000000
Si      -1.44223515       1.32486570       1.45423418       0.00000000
Si       2.44701931       0.23319135       2.64528012       0.00000000
Si      -2.69263926      -2.71538010       0.00265882       0.00000000
Si      -2.72134224       2.69690139       0.00635353       0.00000000
Si      -2.69936703      -0.01213605      -2.72770341       0.00000000
Si       0.01697418       2.70310788      -2.72746170       0.00000000
Si       2.72247507       2.71162267       0.01212006       0.00000000
