10
Lattice="16.28999089631971 0.0 0.0 0.0 16.28999089631971 0.0 0.0 0.0 34.5300574570662" Properties=species:S:1:pos:R:3:initial_magmoms:R:1 pbc="T T T"
Si      -1.70732558      -1.14987852       1.29210308       0.00000000
Si       1.12663269       1.63388700       1.43352446       0.00000000
Si      -0.29165616       2.10421188      -1.29398010       0.00000000
Si       1.84870323      -1.64905299      -0.36698566       0.00000000
Si       2.38469310       2.37201948      -0.39706135       0.00000000
Si       2.31726879       0.16418691       2.76252496       0.00000000
Si      -2.64632190       2.61454500      -0.31688251       0.00000000
Si      -0.41728464      -2.54518218       2.72551563       0.00000000
Si       3.50652024       0.40312863      -1.40261172       0.00000000
Si      -3.19441103      -2.27950857      -0.16567531       0.00000000
