10
Lattice="16.28999089631971 0.0 0.0 0.0 16.28999089631971 0.0 0.0 0.0 34.5300574570662" Properties=species:S:1:pos:R:3:initial_magmoms:R:1 pbc="T T T"
Si       1.33594127       1.34688978      -1.38206632       0.00000000
Si      -1.44473634       1.33002963       1.34094100       0.00000000
Si      -1.37978811      -1.36757808      -1.37212166       0.00000000
Si       1.38355694      -1.33053462       1.52629845       0.00000000
Si      -0.67362082      -2.09287404       2.68713057       0.00000000
Si      -2.49143400      -0.37147716       2.61575690       0.00000000
Si       2.65702769      -2.71184517      -0.01681615       0.00000000
Si       2.70953036       2.67011019      -0.01160211       0.00000000
Si       2.69060138      -0.00700470      -2.73681935       0.00000000
Si      -0.02248346       2.70679527      -2.73664670       0.00000000
