10
Lattice="16.28999089631971 0.0 0.0 0.0 16.28999089631971 0.0 0.0 0.0 34.5300574570662" Properties=species:S:1:pos:R:3:initial_magmoms:R:1 pbc="T T T"
Si      -0.40700728       2.29861674      -0.01612555       0.00000000
Si       1.49692882      -0.82357353      -1.61504075       0.00000000
Si      -1.90583130      -1.32322041       0.41546588       0.00000000
Si       1.26365602      -0.17120790       2.01486451       0.00000000
Si      -0.66321640      -3.33554040       0.20500507       0.00000000
Si      -2.37711729      -0.36167058       2.65394717       0.00000000
Si       3.55298746      -0.18140544      -0.65655488       0.00000000
Si       1.13089253      -3.14237358      -1.39801922       0.00000000
Si      -0.19191086       2.85083145       2.31023479       0.00000000
Si      -0.26474345      -1.23637842       3.45722034       0.00000000
