10
Lattice="16.28999089631971 0.0 0.0 0.0 16.28999089631971 0.0 0.0 0.0 34.5300574570662" Properties=species:S:1:pos:R:3:initial_magmoms:R:1 pbc="T T T"
Si      -1.75844034      -0.89031366      -1.27966482       0.00000000
Si      -1.23198012       1.44321255       1.40527399       0.00000000
Si       1.48923180      -1.28850642       1.36376193       0.00000000
Si       0.68981634       1.86529689      -1.36786207       0.00000000
Si      -2.54716141       2.74235701      -0.08534454       0.00000000
Si      -3.33284929       0.85822236      -1.48077542       0.00000000
Si      -2.65081957      -2.66514174      -0.05503404       0.00000000
Si      -2.59165592       0.09179415       2.76322796       0.00000000
Si      -0.02234988       1.07144217      -3.63690247       0.00000000
Si       2.65510710       2.71512665      -0.09164628       0.00000000
