10
Lattice="16.28999089631971 0.0 0.0 0.0 16.28999089631971 0.0 0.0 0.0 34.5300574570662" Properties=species:S:1:pos:R:3:initial_magmoms:R:1 pbc="T T T"
Si       0.51709999      -2.24546247       0.13936339       0.00000000
Si      -0.32272119       0.51908085      -2.24984168       0.00000000
Si      -2.38658341      -0.02080233       0.28559826       0.00000000
Si       0.75460819       1.14218964       2.21078816       0.00000000
Si      -1.05837107       2.46393159      -1.06124738       0.00000000
Si      -2.21842174      -0.81968022       2.41731255       0.00000000
Si      -0.59722724      -2.60236008       2.19224551       0.00000000
Si       2.87828662      -2.18191518       0.37862229       0.00000000
Si      -2.88479677       2.27418241       0.43304169       0.00000000
Si      -1.25390874       1.07872380       3.44478952       0.00000000
