10
Lattice="16.28999089631971 0.0 0.0 0.0 16.28999089631971 0.0 0.0 0.0 34.5300574570662" Properties=species:S:1:pos:R:3:initial_magmoms:R:1 pbc="T T T"
Si      -0.51709999       2.24546247      -0.13936339       0.00000000
Si      -1.11432722      -0.35689761       2.05288212       0.00000000
Si       2.36118663       0.06354729       0.23925890       0.00000000
Si      -1.20457545      -2.27831940      -2.33882569       0.00000000
Si       0.76566258      -0.18257832       3.41319450       0.00000000
Si       2.88113085      -0.70887564      -2.01396673       0.00000000
Si       2.52553644      -1.25143038       2.22870927       0.00000000
Si      -2.90368340       2.22466014       0.14623488       0.00000000
Si      -1.37957241      -2.75169051       2.09670079       0.00000000
Si      -0.83982118       2.76454332      -2.38920507       0.00000000
