10
Lattice="16.28999089631971 0.0 0.0 0.0 16.28999089631971 0.0 0.0 0.0 34.5300574570662" Properties=species:S:1:pos:R:3:initial_magmoms:R:1 pbc="T T T"
Si      -1.87998980      -0.17431929      -1.36031237       0.00000000
Si      -0.27782595      -0.51072408       2.28347398       0.00000000
Si       1.07354358       2.08161765      -0.36394701       0.00000000
Si       1.75987386      -1.06885206      -1.18448522       0.00000000
Si       2.37864951       1.90825947       1.68382466       0.00000000
Si      -0.76566258       0.18257832      -3.41319450       0.00000000
Si       1.59552405       0.24612561      -3.17393560       0.00000000
Si      -2.14523499      -2.56911219      -1.31649371       0.00000000
Si       1.79541864      -1.69279164       2.80853832       0.00000000
Si      -0.97497279       1.55629773       3.34296032       0.00000000
