10
Lattice="16.28999089631971 0.0 0.0 0.0 16.28999089631971 0.0 0.0 0.0 34.5300574570662" Properties=species:S:1:pos:R:3:initial_magmoms:R:1 pbc="T T T"
Si       1.13207355       1.90618317      -0.75493107       0.00000000
Si      -2.00851693      -0.06346584       1.23400135       0.00000000
Si       1.60169796      -1.48861278       0.97782271       0.00000000
Si      -0.75460819      -1.14218964      -2.21078816       0.00000000
Si      -2.97302993      -1.96186986       0.20652439       0.00000000
Si       3.23128440      -1.33740900      -0.80382566       0.00000000
Si       0.52815438      -3.57023043       1.34176972       0.00000000
Si      -3.14119160      -1.16299197      -1.92518990       0.00000000
Si       1.81431504       3.24899882       1.04287738       0.00000000
Si      -3.38787107       1.78565997       0.54996053       0.00000000
