10
Lattice="16.28999089631971 0.0 0.0 0.0 16.28999089631971 0.0 0.0 0.0 34.185847837958455" Properties=species:S:1:pos:R:3:initial_magmoms:R:1 pbc="T T T"
Si      -1.35623229      -1.33260345       1.35706952       0.00000000
Si      -1.43867598       1.20814785      -1.39796949       0.00000000
Si       1.35509064       1.38543192       1.35696697       0.00000000
Si       1.34353614      -1.41467247      -1.36071374       0.00000000
Si       0.26547046       2.19823776      -2.72425947       0.00000000
Si       2.02425940       0.38335257      -2.94954433       0.00000000
Si      -0.00530323      -2.69168046       2.71469286       0.00000000
Si      -2.70460446       2.72000646      -0.01550671       0.00000000
Si       2.71208836       0.02371824       2.71325705       0.00000000
Si      -2.74322805      -2.68259552      -0.02069271       0.00000000
