10
Lattice="16.28999089631971 0.0 0.0 0.0 16.28999089631971 0.0 0.0 0.0 34.185847837958455" Properties=species:S:1:pos:R:3:initial_magmoms:R:1 pbc="T T T"
Si       0.91085698      -1.74640203       1.29779807       0.00000000
Si       0.88555861       1.99009296       0.95135849       0.00000000
Si       0.33828303       0.12258225      -2.35964528       0.00000000
Si      -1.82898160       0.69468705       1.39806521       0.00000000
Si      -0.14576129       1.37507148       2.97536693       0.00000000
Si      -2.46157117       2.45017957       0.02010129       0.00000000
Si       0.30684170      -0.89907768       3.45379814       0.00000000
Si       3.22449310      -1.49742567       1.05470237       0.00000000
Si       0.36319207      -2.09279259      -3.10158115       0.00000000
Si      -0.46879688       3.75030728      -0.12426563       0.00000000
