10
Lattice="16.28999089631971 0.0 0.0 0.0 16.28999089631971 0.0 0.0 0.0 34.185847837958455" Properties=species:S:1:pos:R:3:initial_magmoms:R:1 pbc="T T T"
Si      -0.20461869      -0.18660195      -2.35079114       0.00000000
Si       0.05626566      -2.36333691       0.45709923       0.00000000
Si       2.40982857       0.37533789       0.30357050       0.00000000
Si      -1.28108958       2.05862824       0.49637879       0.00000000
Si      -2.17281070      -1.51552386      -0.03169030       0.00000000
Si      -0.21779730      -1.77921009       2.71738127       0.00000000
Si      -2.11551062       0.00131949       2.74076748       0.00000000
Si       2.33855982       2.34734732      -1.02834506       0.00000000
Si       0.63506565       3.60156329       0.08204608       0.00000000
Si       1.64576241       1.25689635      -3.03686730       0.00000000
