10
Lattice="16.28999089631971 0.0 0.0 0.0 16.28999089631971 0.0 0.0 0.0 34.185847837958455" Properties=species:S:1:pos:R:3:initial_magmoms:R:1 pbc="T T T"
Si      -0.27406296       0.58412682       2.26028205       0.00000000
Si      -0.05626566       2.36333691      -0.45709923       0.00000000
Si      -2.22907636       0.84781305      -0.48878953       0.00000000
Si       1.88571411      -0.52755165      -1.67531260       0.00000000
Si       1.71250254      -2.61573417       0.30719420       0.00000000
Si       0.19596870      -0.19407906      -3.29490223       0.00000000
Si      -0.26088435       2.17673496      -2.80789037       0.00000000
Si       2.35356291       2.73867480      -0.15352873       0.00000000
Si      -3.01732244      -0.52316964      -2.22167112       0.00000000
Si      -1.21113381      -1.34542368       3.33034754       0.00000000
