10
Lattice="16.28999089631971 0.0 0.0 0.0 16.28999089631971 0.0 0.0 0.0 34.185847837958455" Properties=species:S:1:pos:R:3:initial_magmoms:R:1 pbc="T T T"
Si       2.14671249      -0.69245532       0.73366289       0.00000000
Si      -0.71374635       1.70981469       1.50722069       0.00000000
Si      -1.33825608      -2.00775879       0.20132057       0.00000000
Si       0.19606644       0.85916718      -2.52766882       0.00000000
Si      -1.42366455      -0.77911812      -3.33565178       0.00000000
Si      -2.78749593       2.40388272       0.56239170       0.00000000
Si      -2.82815577      -1.79665668      -1.65791199       0.00000000
Si       2.81329929      -2.45532654      -0.67855527       0.00000000
Si       0.83381994       3.50002053       1.31701052       0.00000000
Si       3.64778712       1.18785051       0.65103565       0.00000000
