10
Lattice="16.28999089631971 0.0 0.0 0.0 16.28999089631971 0.0 0.0 0.0 34.185847837958455" Properties=species:S:1:pos:R:3:initial_magmoms:R:1 pbc="T T T"
Si       0.07446159      -0.74108097       2.17839181       0.00000000
Si      -2.22909102       0.59259762      -0.41624712       0.00000000
Si       0.51070779      -1.98374733      -1.27390215       0.00000000
Si       1.07087202       2.17352583       0.07131172       0.00000000
Si       1.23277833       2.56095090      -2.22327786       0.00000000
Si       2.27849859      -1.33250571       2.51888305       0.00000000
Si       0.36825174      -1.15209396      -3.49588094       0.00000000
Si       0.25956486       1.12630689       3.58684953       0.00000000
Si      -2.90336670       1.98465957       1.45136098       0.00000000
Si      -2.49220710       1.25017605      -2.72232314       0.00000000
