10
Lattice="16.28999089631971 0.0 0.0 0.0 16.28999089631971 0.0 0.0 0.0 34.185847837958455" Properties=species:S:1:pos:R:3:initial_magmoms:R:1 pbc="T T T"
Si       0.74287287      -0.64361790      -2.24443891       0.00000000
Si       1.81672596       0.85652820       1.47553863       0.00000000
Si      -1.77404616       1.85577309       0.01975943       0.00000000
Si      -1.05780744      -1.94872383       1.33976604       0.00000000
Si      -1.54862514      -0.60253452      -2.72799800       0.00000000
Si       0.46271745       2.18639493       2.84770805       0.00000000
Si      -2.26209456      -0.53993205       2.81879023       0.00000000
Si       2.43858042       2.63871936      -1.21886290       0.00000000
Si      -3.51259641       0.82692927       1.34241203       0.00000000
Si       2.45289933       0.93879270      -2.88125324       0.00000000
