10
Lattice="16.28999089631971 0.0 0.0 0.0 16.28999089631971 0.0 0.0 0.0 34.185847837958455" Properties=species:S:1:pos:R:3:initial_magmoms:R:1 pbc="T T T"
Si      -1.35764118       1.35703845      -1.35714473       0.00000000
Si       1.35860229       1.35671265       1.35673450       0.00000000
Si       1.35721764      -1.35772263      -1.35734985       0.00000000
Si      -1.35848826      -1.35694071       1.35769171       0.00000000
Si       2.71479366       0.00164529       2.71025553       0.00000000
Si      -0.00114030       2.71378368      -2.71432365       0.00000000
Si      -2.71528236       0.00021177       2.71346900       0.00000000
Si       2.71450044      -0.00084708      -2.71428946       0.00000000
Si       2.71469592       2.71445157      -0.00051279       0.00000000
Si       0.00158013       2.71241532       2.71681922       0.00000000
