10
Lattice="16.28999089631971 0.0 0.0 0.0 16.28999089631971 0.0 0.0 0.0 34.185847837958455" Properties=species:S:1:pos:R:3:initial_magmoms:R:1 pbc="T T T"
Si       1.54756629       1.79020584      -0.19021016       0.00000000
Si      -2.07374958       0.69406803      -0.94482899       0.00000000
Si       0.71374635      -1.70981469      -1.50722069       0.00000000
Si       0.26311608      -0.65757843       2.30607603       0.00000000
Si       0.60043311       3.31983684       1.27991886       0.00000000
Si      -1.31411430      -2.37193803       2.60694584       0.00000000
Si       2.86045884      -2.40227001      -0.77355780       0.00000000
Si       2.49220710      -1.25017605       2.72232314       0.00000000
Si       3.72498543       1.31077485       0.49904529       0.00000000
Si      -0.62450973      -3.71757348      -1.30590012       0.00000000
