10
Lattice="16.28999089631971 0.0 0.0 0.0 16.28999089631971 0.0 0.0 0.0 34.185847837958455" Properties=species:S:1:pos:R:3:initial_magmoms:R:1 pbc="T T T"
Si       0.81131368       0.83847399      -2.05186992       0.00000000
Si       0.08835533       1.90061457       1.51921993       0.00000000
Si       1.92315667      -1.34675524       0.65089891       0.00000000
Si      -2.23563864      -0.88993477      -0.40168394       0.00000000
Si       0.84668578       0.89847495       3.49806883       0.00000000
Si       3.77353777       0.09674305      -0.03517726       0.00000000
Si      -1.98330654      -3.21929074      -0.71656996       0.00000000
Si       2.12777537      -1.16015329       3.00169005       0.00000000
Si       3.05643568       1.57719291      -1.75592287       0.00000000
Si      -0.43583799       2.58196011      -2.90282452       0.00000000
