10
Lattice="16.28999089631971 0.0 0.0 0.0 16.28999089631971 0.0 0.0 0.0 34.185847837958455" Properties=species:S:1:pos:R:3:initial_magmoms:R:1 pbc="T T T"
Si       1.43975907       0.09392814      -1.77711811       0.00000000
Si       1.51514919      -0.47579832       1.74238527       0.00000000
Si      -1.86675255      -1.45173222      -0.04683464       0.00000000
Si       0.17321157       2.08818252      -1.98250680       0.00000000
Si      -1.71250254       2.61573417      -0.30719420       0.00000000
Si      -0.06946056      -1.33797915       3.20236249       0.00000000
Si      -0.96286932      -2.97331596       1.71972004       0.00000000
Si       3.24975726      -2.19036969       0.48109771       0.00000000
Si      -2.56955528      -1.55255103      -2.56961487       0.00000000
Si       3.52523745       1.08681993      -1.42592670       0.00000000
