10
Lattice="16.28999089631971 0.0 0.0 0.0 16.28999089631971 0.0 0.0 0.0 34.185847837958455" Properties=species:S:1:pos:R:3:initial_magmoms:R:1 pbc="T T T"
Si       1.98371475      -1.39641138       0.21831095       0.00000000
Si      -0.72449775       1.35117405       1.96384131       0.00000000
Si      -0.22239108       1.70453673      -2.03077724       0.00000000
Si      -0.64801620      -2.59875999      -0.34999491       0.00000000
Si      -2.57746896      -1.19742903      -2.00178762       0.00000000
Si      -1.20505275       0.14920011      -3.48856516       0.00000000
Si      -1.51664787      -0.34375158       3.43007315       0.00000000
Si       0.73554237      -3.21064497       1.85724978       0.00000000
Si      -2.95108011      -1.65485223       2.05771570       0.00000000
Si      -2.85465960       2.39057379       1.48065827       0.00000000
