10
Lattice="16.28999089631971 0.0 0.0 0.0 16.28999089631971 0.0 0.0 0.0 34.185847837958455" Properties=species:S:1:pos:R:3:initial_magmoms:R:1 pbc="T T T"
Si       2.11010886       1.05420150      -0.10703595       0.00000000
Si      -1.88823906       1.36530630       0.40947831       0.00000000
Si      -0.66036402      -1.18542330      -1.97748147       0.00000000
Si       0.01666467      -1.05349059       2.16693955       0.00000000
Si      -1.19544165       2.45575727       2.41800055       0.00000000
Si       1.77173298       3.24324845      -1.07319692       0.00000000
Si       3.67969923      -0.47156292      -1.11555321       0.00000000
Si      -3.73862016      -0.07819200       1.09555448       0.00000000
Si      -1.59202170      -2.78247861       2.22813225       0.00000000
Si       0.80811432      -2.94661665      -2.45492129       0.00000000
