10
Lattice="16.28999089631971 0.0 0.0 0.0 16.28999089631971 0.0 0.0 0.0 34.185847837958455" Properties=species:S:1:pos:R:3:initial_magmoms:R:1 pbc="T T T"
Si      -0.75833045       1.00213962      -1.97884891       0.00000000
Si      -2.20095397      -0.50332679       0.95710172       0.00000000
Si       1.28108958      -2.05862824      -0.49637879       0.00000000
Si       1.91615523       1.54293504      -0.41433271       0.00000000
Si       0.91026402       1.53307959       1.85075446       0.00000000
Si      -0.83442104      -2.05730875       2.24438869       0.00000000
Si       0.22954076      -0.26494545       3.43958506       0.00000000
Si      -0.84668578      -0.89847495      -3.49806883       0.00000000
Si      -0.89172112      -3.57415210      -0.52806909       0.00000000
Si       1.07647089      -2.24523019      -2.84716993       0.00000000
