10
Lattice="16.28999089631971 0.0 0.0 0.0 16.28999089631971 0.0 0.0 0.0 34.185847837958455" Properties=species:S:1:pos:R:3:initial_magmoms:R:1 pbc="T T T"
Si       0.94237650       1.62960273      -1.38984150       0.00000000
Si       1.43000136      -1.25665947       1.36605015       0.00000000
Si      -1.30269501       1.43751105       1.36544164       0.00000000
Si      -0.87848712      -1.86121395      -1.42853990       0.00000000
Si       0.78830568       0.23135058      -3.50533132       0.00000000
Si       2.53943181      -2.72586271      -0.10992807       0.00000000
Si      -0.69572961       3.50215452      -1.11583148       0.00000000
Si       0.07185519      -2.61841062       2.72635707       0.00000000
Si      -2.64106512       0.09694179       2.72413499       0.00000000
Si       2.75506254       2.63907774      -0.11832754       0.00000000
