10
Lattice="16.28999089631971 0.0 0.0 0.0 16.28999089631971 0.0 0.0 0.0 34.185847837958455" Properties=species:S:1:pos:R:3:initial_magmoms:R:1 pbc="T T T"
Si      -1.43058780      -1.26516026      -1.34699153       0.00000000
Si      -1.22583879       0.57144668       1.94309049       0.00000000
Si       1.73879460      -1.09312157       1.21082922       0.00000000
Si       1.27540926       1.62092993      -1.35201685       0.00000000
Si      -0.00452862       2.64702074       2.10752451       0.00000000
Si       0.01288539      -0.79406094       3.55621899       0.00000000
Si       3.37264902       0.70986281       1.24884391       0.00000000
Si      -0.02324583      -2.43792623      -2.84046950       0.00000000
Si      -3.15266886      -2.27142614       0.02632312       0.00000000
Si       2.75384079      -2.76234158      -0.04601418       0.00000000
