10
Lattice="16.28999089631971 0.0 0.0 0.0 16.28999089631971 0.0 0.0 0.0 34.185847837958455" Properties=species:S:1:pos:R:3:initial_magmoms:R:1 pbc="T T T"
Si      -1.52044344       1.29754737       1.27622678       0.00000000
Si       1.02920220      -1.26920277       1.72642047       0.00000000
Si       1.62885339       1.63909980      -0.59144968       0.00000000
Si      -1.22131017      -2.07557406      -0.16443402       0.00000000
Si       0.00452862      -2.64702074      -2.10752451       0.00000000
Si       2.80202661       0.14286330      -1.96958454       0.00000000
Si       0.18456570       2.89600362      -2.09637992       0.00000000
Si      -3.56630454       0.76012398       0.03432261       0.00000000
Si       0.01741401      -3.44108168       1.44869448       0.00000000
Si      -1.24232427       0.44013951       3.49639373       0.00000000
