10
Lattice="16.28999089631971 0.0 0.0 0.0 16.28999089631971 0.0 0.0 0.0 34.185847837958455" Properties=species:S:1:pos:R:3:initial_magmoms:R:1 pbc="T T T"
Si       1.19115738      -0.13929579      -1.96808036       0.00000000
Si      -2.19776535      -0.40129112      -0.75697765       0.00000000
Si      -0.24156441       2.31620994       0.55658010       0.00000000
Si       0.99916344      -1.79261138       1.38015182       0.00000000
Si      -0.32378004       1.79383851       2.83035048       0.00000000
Si       0.99023652      -2.52057518      -2.25124190       0.00000000
Si      -3.41153325       1.07642691       0.64283104       0.00000000
Si       3.38335155       0.51202728      -1.38025438       0.00000000
Si       0.36502632       1.66283433      -3.28208253       0.00000000
Si      -2.43732609      -2.75881643      -0.67527343       0.00000000
