10
Lattice="16.28999089631971 0.0 0.0 0.0 16.28999089631971 0.0 0.0 0.0 34.185847837958455" Properties=species:S:1:pos:R:3:initial_magmoms:R:1 pbc="T T T"
Si      -1.35783666      -1.35226548      -1.35695671       0.00000000
Si      -1.35886293       1.35702216       1.35933263       0.00000000
Si       1.35729909      -1.35858600       1.36059750       0.00000000
Si       1.37095011       1.33804431      -1.37001229       0.00000000
Si      -0.03277548       2.54347173      -2.84133440       0.00000000
Si       2.63687859      -0.17381430      -2.75247508       0.00000000
Si      -2.71259451       2.71619460       0.00242720       0.00000000
Si      -2.71598283      -2.71401663       0.00335021       0.00000000
Si       2.71591767       2.71529865      -0.00355533       0.00000000
Si       0.00066789       2.71422351       2.71709270       0.00000000
