10
Lattice="16.28999089631971 0.0 0.0 0.0 16.28999089631971 0.0 0.0 0.0 34.185847837958455" Properties=species:S:1:pos:R:3:initial_magmoms:R:1 pbc="T T T"
Si      -1.24453971       1.60938684       1.05042913       0.00000000
Si       1.14733728       1.47246939      -1.42124323       0.00000000
Si      -1.54714275      -1.10555343      -1.43994290       0.00000000
Si       1.44428769      -1.25690382       1.50493023       0.00000000
Si      -0.18456570      -2.89600362       2.09637992       0.00000000
Si      -1.55610225       0.72378099       3.15788527       0.00000000
Si       2.61746091      -2.75314032       0.12679538       0.00000000
Si       2.52594369       0.18342540      -2.85038340       0.00000000
Si      -0.20893554      -2.53205244      -2.84935782       0.00000000
Si       1.88950968       3.38027274      -0.29895541       0.00000000
