10
Lattice="16.28999089631971 0.0 0.0 0.0 16.28999089631971 0.0 0.0 0.0 34.185847837958455" Properties=species:S:1:pos:R:3:initial_magmoms:R:1 pbc="T T T"
Si       1.17317322      -1.49623650      -1.37813485       0.00000000
Si      -1.62885339      -1.63909980       0.59144968       0.00000000
Si      -1.44428769       1.25690382      -1.50493023       0.00000000
Si       1.72783143       0.57831129       2.64827655       0.00000000
Si      -3.14929683      -0.34155243       1.86767647       0.00000000
Si      -0.59965119      -2.90830257       2.31787015       0.00000000
Si       2.46822822      -0.02112813      -2.91817397       0.00000000
Si      -0.34891551      -2.66519061      -2.86809168       0.00000000
Si      -2.68882740       2.86629066      -0.45450110       0.00000000
Si      -3.00038994       1.98068481       1.65295504       0.00000000
