10
Lattice="16.28999089631971 0.0 0.0 0.0 16.28999089631971 0.0 0.0 0.0 34.185847837958455" Properties=species:S:1:pos:R:3:initial_magmoms:R:1 pbc="T T T"
Si       0.64974294       1.34814411       1.78501504       0.00000000
Si       1.83842424      -0.78444495      -1.20122299       0.00000000
Si      -1.04097987       1.23543360      -1.69209786       0.00000000
Si      -1.43159778      -1.78642656       0.65069379       0.00000000
Si       1.80752211      -0.24399162       3.11358039       0.00000000
Si      -3.13204572       0.07881102      -1.88579498       0.00000000
Si       1.04567139      -1.28326104      -3.33079739       0.00000000
Si      -0.79504974      -3.61916559      -0.70453653       0.00000000
Si      -1.24558227       2.54830986       2.53491622       0.00000000
Si       0.24306309       0.96601329      -3.69504780       0.00000000
