10
Lattice="16.28999089631971 0.0 0.0 0.0 16.28999089631971 0.0 0.0 0.0 34.185847837958455" Properties=species:S:1:pos:R:3:initial_magmoms:R:1 pbc="T T T"
Si       0.39182337      -1.28860416      -1.86897553       0.00000000
Si       0.53779806      -0.51642558       2.18398774       0.00000000
Si      -2.25442197      -0.14284701       0.54044437       0.00000000
Si       1.55507598       1.83643686      -0.10187388       0.00000000
Si      -3.19016844       1.14016968      -1.15808043       0.00000000
Si       3.31198506       0.73192599      -1.22522147       0.00000000
Si       2.16119430      -0.24192279      -2.98979337       0.00000000
Si      -1.37717289      -1.22438898      -3.30526055       0.00000000
Si       0.53522424       3.42181224      -1.53781704       0.00000000
Si       2.23122501      -2.26966941       2.14243276       0.00000000
