10
Lattice="16.28999089631971 0.0 0.0 0.0 16.28999089631971 0.0 0.0 0.0 34.185847837958455" Properties=species:S:1:pos:R:3:initial_magmoms:R:1 pbc="T T T"
Si      -1.20428712       1.40879178       1.47902418       0.00000000
Si       1.50307830      -1.30544802       1.45468727       0.00000000
Si      -1.89296316      -0.94139910      -1.45688682       0.00000000
Si       1.05780744       1.94872383      -1.33976604       0.00000000
Si      -2.45478897       2.77565310       0.00264599       0.00000000
Si      -2.57368642      -2.73942414       0.13194377       0.00000000
Si      -2.56213193       0.06068025       2.84962447       0.00000000
Si       0.15379389      -2.65917797       2.84825704       0.00000000
Si      -0.88707195      -0.93154365      -3.72197400       0.00000000
Si      -3.65175211       0.87348609      -1.23160196       0.00000000
