10
Lattice="16.28999089631971 0.0 0.0 0.0 16.28999089631971 0.0 0.0 0.0 34.185847837958455" Properties=species:S:1:pos:R:3:initial_magmoms:R:1 pbc="T T T"
Si      -1.35617508      -1.33332021      -1.38008345       0.00000000
Si      -1.40734197       1.17276597       1.49347797       0.00000000
Si       1.35845568       1.38333051      -1.37902369       0.00000000
Si       1.28904399      -1.52819748       1.40678261       0.00000000
Si       0.02324583       2.43792623       2.84046950       0.00000000
Si      -2.70668124      -2.69710272      -0.00352114       0.00000000
Si      -2.69816157       2.72959217      -0.00133325       0.00000000
Si       2.72862387      -2.70269019      -0.01634084       0.00000000
Si      -0.00076563      -2.69343747      -2.73876654       0.00000000
Si       2.69425197       2.75128067      -0.01487085       0.00000000
