10
Lattice="16.28999089631971 0.0 0.0 0.0 16.28999089631971 0.0 0.0 0.0 34.185847837958455" Properties=species:S:1:pos:R:3:initial_magmoms:R:1 pbc="T T T"
Si       1.36702422      -0.89298522      -1.68591021       0.00000000
Si       0.20092086       2.38127939       0.28316154       0.00000000
Si       0.77963940      -0.96853824       2.09015809       0.00000000
Si      -2.29307814      -0.69929712      -0.43385284       0.00000000
Si      -0.99023652       2.52057518       2.25124190       0.00000000
Si       0.00892692       0.72796379       3.63139372       0.00000000
Si      -0.06895557      -0.98290602      -3.57122659       0.00000000
Si      -3.42756261      -0.23824125       1.57596847       0.00000000
Si       2.96370486       0.81063342      -2.22785876       0.00000000
Si      -0.59497596      -2.88881973       2.47768908       0.00000000
