10
Lattice="16.28999089631971 0.0 0.0 0.0 16.28999089631971 0.0 0.0 0.0 34.185847837958455" Properties=species:S:1:pos:R:3:initial_magmoms:R:1 pbc="T T T"
Si       0.84540213       0.73790442       2.09299552       0.00000000
Si       1.98747774      -1.08773217      -0.77147246       0.00000000
Si      -1.72866222      -1.66311126       0.31098883       0.00000000
Si      -0.96029550       1.76854014      -1.42753343       0.00000000
Si       1.14360687      -2.26033524      -2.63706359       0.00000000
Si      -1.90949751       0.53196624      -3.21572776       0.00000000
Si       2.32792245       2.57238648       1.63217003       0.00000000
Si       2.47137219      -2.92583061       0.64101919       0.00000000
Si      -0.85807575       1.92686265       3.28054416       0.00000000
Si      -0.01417230      -0.66819951      -3.96562894       0.00000000
