10
Lattice="16.28999089631971 0.0 0.0 0.0 16.28999089631971 0.0 0.0 0.0 34.185847837958455" Properties=species:S:1:pos:R:3:initial_magmoms:R:1 pbc="T T T"
Si       1.35568638       1.35739608       1.35738403       0.00000000
Si      -1.35770634       1.35748893      -1.35728148       0.00000000
Si       1.35734796      -1.35792279      -1.35724729       0.00000000
Si      -1.35755973      -1.35925857       1.35697380       0.00000000
Si       2.71261017      -0.00102608      -2.71408435       0.00000000
Si      -0.00034209       2.71403053      -2.71367412       0.00000000
Si       0.00089595      -2.71453770       2.71381086       0.00000000
Si       0.00144981       2.71645774       2.71220413       0.00000000
Si      -2.71458189       2.71499164       0.00006837       0.00000000
Si      -2.71505430      -2.71483092      -0.00020512       0.00000000
