10
Lattice="16.28999089631971 0.0 0.0 0.0 16.28999089631971 0.0 0.0 0.0 34.185847837958455" Properties=species:S:1:pos:R:3:initial_magmoms:R:1 pbc="T T T"
Si       1.35228244      -1.35689733      -1.36213587       0.00000000
Si      -1.37774304      -1.34984376       1.35451242       0.00000000
Si      -1.36301688       1.36047408      -1.36107611       0.00000000
Si       1.37438308       1.34676441       1.38452761       0.00000000
Si      -0.15384276       2.53265686       2.74669767       0.00000000
Si       2.71178720      -2.71079181      -0.00229045       0.00000000
Si      -2.71780731      -2.71145970      -0.00464928       0.00000000
Si       2.71151027       0.00284954      -2.71822084       0.00000000
Si      -0.00342325      -2.71189953      -2.71842595       0.00000000
Si       2.71258541       2.71849318      -0.00564067       0.00000000
