10
Lattice="16.28999089631971 0.0 0.0 0.0 16.28999089631971 0.0 0.0 0.0 34.185847837958455" Properties=species:S:1:pos:R:3:initial_magmoms:R:1 pbc="T T T"
Si      -1.33579629      -1.36795016      -1.36415283       0.00000000
Si       1.22020245      -1.49699954       1.33820576       0.00000000
Si       1.38003993       1.34517281      -1.36979350       0.00000000
Si      -1.39559688       1.30757549       1.50332350       0.00000000
Si      -2.69990460       2.69761748       0.01712712       0.00000000
Si       2.73373893       2.67951929      -0.00803368       0.00000000
Si      -2.69506647      -0.01404524      -2.72570754       0.00000000
Si       0.02065572       2.69890439      -2.72457941       0.00000000
Si       2.71955034      -2.72420669      -0.00902507       0.00000000
Si      -2.69425197      -2.75128067       0.01487085       0.00000000
