10
Lattice="16.28999089631971 0.0 0.0 0.0 16.28999089631971 0.0 0.0 0.0 34.185847837958455" Properties=species:S:1:pos:R:3:initial_magmoms:R:1 pbc="T T T"
Si       1.49654601      -1.37299288      -1.10006701       0.00000000
Si       0.37752075       0.23980509       2.27072784       0.00000000
Si      -2.19219417      -0.65132307      -0.58782598       0.00000000
Si       0.51890166       2.33183205      -0.36862620       0.00000000
Si       0.05528826       2.63306673       2.08800438       0.00000000
Si       2.01709296       1.79976807      -2.18782711       0.00000000
Si      -1.47295809       2.96847783      -1.53344125       0.00000000
Si      -3.38335155      -0.51202728       1.38025438       0.00000000
Si       3.48932030      -0.07286517      -1.24443393       0.00000000
Si      -3.01832523       1.15080705      -1.90182815       0.00000000
