10
Lattice="16.28999089631971 0.0 0.0 0.0 16.28999089631971 0.0 0.0 0.0 34.185847837958455" Properties=species:S:1:pos:R:3:initial_magmoms:R:1 pbc="T T T"
Si       0.92756889       1.49519720      -1.54858559       0.00000000
Si      -1.09662651       1.68129416       1.22197381       0.00000000
Si      -1.83413997      -1.04924656      -1.05890723       0.00000000
Si       1.32871014      -1.37909904       1.48400848       0.00000000
Si      -1.58856822       0.41467824       3.15306507       0.00000000
Si      -0.09594810      -1.42544409       3.38518710       0.00000000
Si      -2.83330341       0.74336483      -2.43905905       0.00000000
Si       3.12851079       2.09279585      -1.01713210       0.00000000
Si       0.49686129       3.43145918       1.80244983       0.00000000
Si      -1.06342749      -2.74574859      -2.60014285       0.00000000
