10
Lattice="16.28999089631971 0.0 0.0 0.0 16.28999089631971 0.0 0.0 0.0 34.185847837958455" Properties=species:S:1:pos:R:3:initial_magmoms:R:1 pbc="T T T"
Si       1.96734330      -0.52325109      -1.12724478       0.00000000
Si      -1.19786886       1.74537576      -1.01402119       0.00000000
Si      -1.35021294      -1.93140756      -0.24521522       0.00000000
Si       0.77999778       0.75210930       2.13025811       0.00000000
Si       2.76674640      -1.82601126       0.67096601       0.00000000
Si      -1.34833959       1.01532312       3.18123422       0.00000000
Si       3.03031860       1.59262443      -1.15585835       0.00000000
Si      -2.15480862      -2.49828327       1.87335132       0.00000000
Si       2.85226890      -0.39284964       2.51980607       0.00000000
Si      -0.18192672       3.86618715      -0.67479483       0.00000000
