10
Lattice="16.28999089631971 0.0 0.0 0.0 16.28999089631971 0.0 0.0 0.0 34.185847837958455" Properties=species:S:1:pos:R:3:initial_magmoms:R:1 pbc="T T T"
Si       1.00328874       1.52733411      -1.47973525       0.00000000
Si       1.10979927      -2.09124504       0.13780323       0.00000000
Si      -0.48521394       0.78747489       2.20403121       0.00000000
Si      -2.01192903      -1.21474530      -0.96137495       0.00000000
Si      -2.47554243      -0.91351062       1.49525563       0.00000000
Si      -0.51373773      -1.74680928      -2.78057586       0.00000000
Si       1.83973300       1.58708583       2.38179772       0.00000000
Si      -1.06898238       2.67229305      -1.86928320       0.00000000
Si       0.91776624       0.09417249      -3.32857531       0.00000000
Si       0.04763196      -2.70917361       2.20943258       0.00000000
