10
Lattice="16.28999089631971 0.0 0.0 0.0 16.28999089631971 0.0 0.0 0.0 34.185847837958455" Properties=species:S:1:pos:R:3:initial_magmoms:R:1 pbc="T T T"
Si      -1.63634679       0.25622541      -1.64273346       0.00000000
Si       1.49921757       1.81071495      -0.12915421       0.00000000
Si      -1.10084562       0.40439925       2.04520368       0.00000000
Si       0.80497035      -2.21972427       0.05968852       0.00000000
Si      -3.16555425      -1.05524991      -0.34753352       0.00000000
Si      -1.41376023       2.66846490       1.77209278       0.00000000
Si       2.90737404      -1.87321968      -1.11938203       0.00000000
Si       0.35561070       3.71514627       0.65127495       0.00000000
Si       3.05328357       1.51852122       1.68676486       0.00000000
Si      -3.10003587      -0.86926698       2.03802464       0.00000000
