10
Lattice="16.28999089631971 0.0 0.0 0.0 16.28999089631971 0.0 0.0 0.0 34.185847837958455" Properties=species:S:1:pos:R:3:initial_magmoms:R:1 pbc="T T T"
Si       1.35643313       1.34781831       1.35817031       0.00000000
Si       1.35364428      -1.35886293      -1.36087099       0.00000000
Si      -1.36285398       1.35742941      -1.36104192       0.00000000
Si      -1.37220444      -1.36420605       1.37758788       0.00000000
Si      -0.08363286       2.62690911       2.66875389       0.00000000
Si       2.71162430      -2.71437012      -0.00410230       0.00000000
Si       2.71195010       2.71635750      -0.00133325       0.00000000
Si       2.71129850       0.00032580      -2.71729782       0.00000000
Si      -2.71546155      -2.71612944      -0.00170929       0.00000000
Si      -0.00296388      -2.71510317      -2.71740038       0.00000000
