10
Lattice="16.28999089631971 0.0 0.0 0.0 16.28999089631971 0.0 0.0 0.0 34.185847837958455" Properties=species:S:1:pos:R:3:initial_magmoms:R:1 pbc="T T T"
Si       0.84297492      -1.20365181      -1.85280562       0.00000000
Si      -0.70390719       1.96682202      -1.12372363       0.00000000
Si       1.72871339       0.76751964       1.69729411       0.00000000
Si      -1.55688417      -2.13480450       0.19205620       0.00000000
Si      -1.78466724      -1.03477338       2.24393060       0.00000000
Si       0.17321157      -0.16439868       3.33625144       0.00000000
Si      -1.85469795       0.99297324      -2.88829553       0.00000000
Si       3.69194021      -0.16348644       0.32250947       0.00000000
Si       2.98913748      -0.26430525      -2.20027077       0.00000000
Si       1.88812570      -3.14616915      -1.05200168       0.00000000
