10
Lattice="16.28999089631971 0.0 0.0 0.0 16.28999089631971 0.0 0.0 0.0 34.185847837958455" Properties=species:S:1:pos:R:3:initial_magmoms:R:1 pbc="T T T"
Si       1.93256741      -1.22399802      -0.45597109       0.00000000
Si       0.08552250       1.43316162       1.84884006       0.00000000
Si      -0.79940310       1.30276017      -1.79821079       0.00000000
Si      -1.43150397      -1.84098177       0.54799945       0.00000000
Si      -2.76674640       1.82601126      -0.67096601       0.00000000
Si      -0.18440769      -0.27554535      -3.42197110       0.00000000
Si      -0.91776624      -0.09417249       3.32857531       0.00000000
Si      -1.98674862       2.57812056       1.45929210       0.00000000
Si       1.24032386      -3.45302388      -0.67937573       0.00000000
Si      -2.89128345      -2.09082150      -1.32032655       0.00000000
