10
Lattice="16.28999089631971 0.0 0.0 0.0 16.28999089631971 0.0 0.0 0.0 34.185847837958455" Properties=species:S:1:pos:R:3:initial_magmoms:R:1 pbc="T T T"
Si       1.21202487      -1.38774510      -1.47621411       0.00000000
Si      -1.73187135       1.28138769      -1.46332603       0.00000000
Si       1.59523083       2.04187005      -0.27748668       0.00000000
Si       0.03473028      -1.58423508       2.31745992       0.00000000
Si       2.19879162       0.18248058      -2.96839301       0.00000000
Si      -2.92726413       1.35729909       1.95683321       0.00000000
Si      -0.48596328      -2.48525127      -2.81100128       0.00000000
Si       1.99031220       2.82167235       1.86993274       0.00000000
Si      -2.74691754       2.95060770      -0.20648264       0.00000000
Si       3.57927531       1.34926812      -1.49409331       0.00000000
