10
Lattice="16.28999089631971 0.0 0.0 0.0 16.28999089631971 0.0 0.0 0.0 34.185847837958455" Properties=species:S:1:pos:R:3:initial_magmoms:R:1 pbc="T T T"
Si       0.25233210      -2.32935597      -0.31488602       0.00000000
Si      -1.42465824      -0.04634505       1.90117862       0.00000000
Si      -1.32871014       1.37909904      -1.48400848       0.00000000
Si       2.23563864       0.88993477       0.40168394       0.00000000
Si      -2.91727836       1.79377728       1.66905658       0.00000000
Si       1.40235723      -3.15672507       1.63880209       0.00000000
Si       3.04695232       1.72840877      -1.65018598       0.00000000
Si      -0.01674612      -0.59955345       3.85907159       0.00000000
Si      -2.42533665       3.06039320      -0.26203467       0.00000000
Si       1.38513870      -2.97012312      -2.27342852       0.00000000
