10
Lattice="16.28999089631971 0.0 0.0 0.0 16.28999089631971 0.0 0.0 0.0 34.185847837958455" Properties=species:S:1:pos:R:3:initial_magmoms:R:1 pbc="T T T"
Si      -1.35225429       1.35555606      -1.35146988       0.00000000
Si      -1.35409506      -1.35904212       1.35840961       0.00000000
Si       1.35990595       1.35553977       1.35834124       0.00000000
Si       1.36077257      -1.35975888      -1.36059750       0.00000000
Si      -0.00815010       2.67967242      -2.72869197       0.00000000
Si      -2.67931914      -0.01141929      -2.73436340       0.00000000
Si      -2.71248558       2.71046052       0.00000000       0.00000000
Si      -2.71255074      -0.00172674       2.71555434       0.00000000
Si       2.71725554       2.71112841       0.00071790       0.00000000
Si      -2.71369104      -2.71541268      -0.00013674       0.00000000
