10
Lattice="16.28999089631971 0.0 0.0 0.0 16.28999089631971 0.0 0.0 0.0 34.185847837958455" Properties=species:S:1:pos:R:3:initial_magmoms:R:1 pbc="T T T"
Si      -1.35761837      -1.35661980       1.35779426       0.00000000
Si       1.35739683       1.35865116       1.35840961       0.00000000
Si       1.35892809      -1.35814454      -1.35765752       0.00000000
Si      -1.35699773       1.36171368      -1.35629009       0.00000000
Si      -2.71208836      -0.02371824      -2.71325705       0.00000000
Si       0.02722059      -2.71537993      -2.71036151       0.00000000
Si      -2.71552166       2.71314837       0.00164092       0.00000000
Si       2.71342530      -2.71563164       0.00095720       0.00000000
Si       2.71425609       2.71544526       0.00129906       0.00000000
Si      -2.71495462       0.00079821       2.71514411       0.00000000
