10
Lattice="16.28999089631971 0.0 0.0 0.0 16.28999089631971 0.0 0.0 0.0 34.185847837958455" Properties=species:S:1:pos:R:3:initial_magmoms:R:1 pbc="T T T"
Si      -1.97870462       0.01676241      -1.20088113       0.00000000
Si       1.10297961      -1.77930783      -1.05692445       0.00000000
Si       0.17172918      -0.88987383       2.17784484       0.00000000
Si       0.55012959       2.32381737       0.09219928       0.00000000
Si      -0.78472514      -3.32268759      -0.97241699       0.00000000
Si       2.17813590       0.17391204       2.79824995       0.00000000
Si      -3.61946600       1.18501605      -0.03664725       0.00000000
Si      -2.85699626      -2.17772865      -1.36196494       0.00000000
Si       2.86376571       2.57279373      -0.15089642       0.00000000
Si      -1.60768358       0.46749042      -3.47820685       0.00000000
