10
Lattice="16.28999089631971 0.0 0.0 0.0 16.28999089631971 0.0 0.0 0.0 34.185847837958455" Properties=species:S:1:pos:R:3:initial_magmoms:R:1 pbc="T T T"
Si      -1.57727503       1.47098700       1.01309817       0.00000000
Si       1.63601610       1.80007758      -0.06013294       0.00000000
Si       0.58299466      -2.17412856       0.97234861       0.00000000
Si      -0.88857177      -0.56940066      -2.24642169       0.00000000
Si      -2.72730016       2.29835610      -0.94058994       0.00000000
Si       2.31571635       1.77271038      -2.27510363       0.00000000
Si      -1.59449356       1.65758895      -2.89913245       0.00000000
Si      -3.11005000       0.05699871       2.04889575       0.00000000
Si      -1.56316789      -3.11347512       1.31981377       0.00000000
Si       1.51343385      -3.54573027      -0.75359325       0.00000000
