10
Lattice="16.28999089631971 0.0 0.0 0.0 16.28999089631971 0.0 0.0 0.0 34.185847837958455" Properties=species:S:1:pos:R:3:initial_magmoms:R:1 pbc="T T T"
Si      -2.00640672      -1.06378587      -0.62040511       0.00000000
Si       0.58743369      -1.91280438       1.26333871       0.00000000
Si       1.59902640       0.67254894      -1.63042655       0.00000000
Si      -0.42296985       2.22998697       0.77024177       0.00000000
Si       2.98721133       1.75974354      -0.07825145       0.00000000
Si      -2.17813590      -0.17391204      -2.79824995       0.00000000
Si       1.26170937      -3.30486633      -0.60426938       0.00000000
Si      -3.62725797      -0.11212407       0.79892371       0.00000000
Si       2.17160361      -1.17594252       2.77907168       0.00000000
Si      -2.23202159       2.99722968      -0.55005060       0.00000000
