10
Lattice="16.28999089631971 0.0 0.0 0.0 16.28999089631971 0.0 0.0 0.0 34.185847837958455" Properties=species:S:1:pos:R:3:initial_magmoms:R:1 pbc="T T T"
Si       1.35761837       1.35661980      -1.35779426       0.00000000
Si      -1.35733625       1.35741801       1.35734985       0.00000000
Si       1.35783014      -1.35798128       1.35796519       0.00000000
Si      -1.35977322      -1.35877890      -1.35635846       0.00000000
Si      -2.71070228       0.00029811      -2.71398179       0.00000000
Si      -0.00009611       2.71398405       2.71370830       0.00000000
Si       2.71333733      -0.00117614       2.71517830       0.00000000
Si      -2.71466075       2.71484742       0.00027349       0.00000000
Si       2.71524326      -2.71502402       0.00054697       0.00000000
Si       2.71501520       2.71527096       0.00061535       0.00000000
