10
Lattice="16.28999089631971 0.0 0.0 0.0 16.28999089631971 0.0 0.0 0.0 34.185847837958455" Properties=species:S:1:pos:R:3:initial_magmoms:R:1 pbc="T T T"
Si       0.27406296      -0.58412682      -2.26028205       0.00000000
Si       1.84772583       0.88510086       1.18643419       0.00000000
Si      -0.93707085      -1.92955050       1.07006550       0.00000000
Si      -1.89771332       1.78052958       0.02338621       0.00000000
Si       0.21779730       1.77921009      -2.71738127       0.00000000
Si      -1.95501340       0.26368623      -2.74907157       0.00000000
Si      -2.19086558      -0.45183573       2.56362209       0.00000000
Si       0.56202129       2.29590367       2.58219186       0.00000000
Si      -0.83375152       3.57289289       1.21858258       0.00000000
Si      -3.74519222       0.73951713       1.23781554       0.00000000
