10
Lattice="16.28999089631971 0.0 0.0 0.0 16.28999089631971 0.0 0.0 0.0 34.185847837958455" Properties=species:S:1:pos:R:3:initial_magmoms:R:1 pbc="T T T"
Si      -1.35916560       1.35479531       1.36227261       0.00000000
Si       1.35796535      -1.36146933       1.36131541       0.00000000
Si       1.38544658       1.35481408      -1.34952470       0.00000000
Si      -1.36744029      -1.39292532      -1.36809446       0.00000000
Si      -0.01032623       2.63180330      -2.71313398       0.00000000
Si       2.67115112      -0.05598873      -2.74528237       0.00000000
Si      -2.71009467       2.71387232       0.00464928       0.00000000
Si      -2.71154448      -2.71704168       0.00912763       0.00000000
Si       2.71715408       2.71204947       0.00317929       0.00000000
Si       2.71712150      -2.71394658       0.00714485       0.00000000
