10
Lattice="10.86 0.0 0.0 0.0 10.86 0.0 0.0 0.0 10.86" Properties=species:S:1:pos:R:3:initial_magmoms:R:1 pbc="T T T"
Si       1.15782804      -1.24202562       1.45109148       0.00000000
Si       1.15782804       1.47297438      -1.26390852       0.00000000
Si      -1.55717196      -1.24202562      -1.26390852       0.00000000
Si       2.51532804      -2.59952562       0.09359148       0.00000000
Si       2.51532804       0.11547438      -2.62140852       0.00000000
Si      -0.19967196      -2.59952562      -2.62140852       0.00000000
Si       2.51532804       0.11547438       2.80859148       0.00000000
Si       2.51532804       2.83047438       0.09359148       0.00000000
Si      -0.19967196      -2.59952562       2.80859148       0.00000000
Si      -0.19967196       2.83047438      -2.62140852       0.00000000
