10
Lattice="10.86 0.0 0.0 0.0 10.86 0.0 0.0 0.0 10.86" Properties=species:S:1:pos:R:3:initial_magmoms:R:1 pbc="T T T"
Si      -1.17096864      -1.48323708      -1.17697422       0.00000000
Si      -1.17096864       1.23176292       1.53802578       0.00000000
Si       1.54403136       1.23176292      -1.17697422       0.00000000
Si      -2.52846864      -0.12573708      -2.53447422       0.00000000
Si      -2.52846864       2.58926292       0.18052578       0.00000000
Si       0.18653136       2.58926292      -2.53447422       0.00000000
Si      -2.52846864      -2.84073708       0.18052578       0.00000000
Si       0.18653136      -2.84073708      -2.53447422       0.00000000
Si      -2.52846864      -0.12573708       2.89552578       0.00000000
Si       2.90153136      -0.12573708      -2.53447422       0.00000000
