10
Lattice="10.86 0.0 0.0 0.0 10.86 0.0 0.0 0.0 10.86" Properties=species:S:1:pos:R:3:initial_magmoms:R:1 pbc="T T T"
Si      -1.46381940       1.38195672      -1.17671358       0.00000000
Si       1.53775428      -1.45277478      -1.14122310       0.00000000
Si       1.25118060       1.38195672       1.53828642       0.00000000
Si      -1.46381940      -1.33304328       1.53828642       0.00000000
Si       1.12344528      -3.05488542       0.72948792       0.00000000
Si      -0.14529594      -2.50516308      -2.45150382       0.00000000
Si       2.72533872       0.10880634      -2.33895078       0.00000000
Si      -0.10631940       2.73945672      -2.53421358       0.00000000
Si       2.60868060       2.73945672       0.18078642       0.00000000
Si      -2.82131940       0.02445672      -2.53421358       0.00000000
