10
Lattice="10.86 0.0 0.0 0.0 10.86 0.0 0.0 0.0 10.86" Properties=species:S:1:pos:R:3:initial_magmoms:R:1 pbc="T T T"
Si      -1.18526040       0.42775368       2.02267500       0.00000000
Si      -1.15176816      -2.17316202      -0.34821504       0.00000000
Si       0.41430900       1.60211064      -1.87071102       0.00000000
Si       1.25809842      -2.07971172       2.08135158       0.00000000
Si      -2.58726468       1.72184214       0.80879850       0.00000000
Si      -1.12344528       3.05488542      -0.72948792       0.00000000
Si      -2.58726468      -0.99315786      -1.90620150       0.00000000
Si      -1.26874122       0.54972234      -3.18099174       0.00000000
Si       0.12773532       1.72184214       3.52379850       0.00000000
Si      -3.94476468       0.36434214      -0.54870150       0.00000000
