10
Lattice="10.86 0.0 0.0 0.0 10.86 0.0 0.0 0.0 10.86" Properties=species:S:1:pos:R:3:initial_magmoms:R:1 pbc="T T T"
Si       1.16230236      -1.44051384      -1.19556654       0.00000000
Si       1.16230236       1.27448616       1.51943346       0.00000000
Si      -1.55269764      -1.44051384       1.51943346       0.00000000
Si      -0.54373848       2.41859802      -2.53899198       0.00000000
Si       2.51980236      -0.08301384      -2.55306654       0.00000000
Si       2.51980236       2.63198616       0.16193346       0.00000000
Si       2.51980236      -2.79801384       0.16193346       0.00000000
Si      -0.19519764      -2.79801384      -2.55306654       0.00000000
Si       2.51980236      -0.08301384       2.87693346       0.00000000
Si      -0.02116614       2.42490768       3.04027872       0.00000000
