10
Lattice="16.290000149 0.0 0.0 0.0 16.290000149 0.0 0.0 0.0 29.1751946751" Properties=species:S:1:pos:R:3:initial_magmoms:R:1 pbc="T T T"
Si      -1.39906666       1.42416955      -1.22427869       0.00000000
Si      -1.32677164      -1.38225538       1.37625520       0.00000000
Si       1.19943271      -1.47242053      -1.43043062       0.00000000
Si       1.30798927       1.44676378       1.37040266       0.00000000
H        3.22027239       1.73020979      -0.50983653       0.00000000
Si      -0.00480555       2.65608452      -2.65144169       0.00000000
Si       2.66932829      -2.68177385       0.02631603       0.00000000
Si       2.53201988      -0.14229315      -2.83022728       0.00000000
Si      -2.90227530       0.13756905      -2.50895004       0.00000000
Si       2.73518877       0.07970697       2.70502485       0.00000000
