10
Lattice="16.290000149 0.0 0.0 0.0 16.290000149 0.0 0.0 0.0 29.1751946751" Properties=species:S:1:pos:R:3:initial_magmoms:R:1 pbc="T T T"
Si       1.14815179       0.12531897      -2.05898101       0.00000000
Si      -0.91668718      -1.83500336       1.16957520       0.00000000
Si       1.56097297       0.78164308       1.59308233       0.00000000
Si      -1.93324835       1.49183821      -0.31538385       0.00000000
Si      -1.94813741      -0.34723764       2.64070522       0.00000000
H       -2.83248894       0.50358906       1.75232054       0.00000000
H        1.85134223      -2.84539062      -0.14987298       0.00000000
Si      -0.05092254       0.95431708       3.27263994       0.00000000
Si       2.39472776       2.71106490       0.57311752       0.00000000
Si       2.67359627       1.97319143      -1.63381090       0.00000000
