10
Lattice="16.290000149 0.0 0.0 0.0 16.290000149 0.0 0.0 0.0 29.1751946751" Properties=species:S:1:pos:R:3:initial_magmoms:R:1 pbc="T T T"
Si      -1.33810948       1.15409764       1.55689634       0.00000000
Si      -1.30798927      -1.44676378      -1.37040266       0.00000000
Si       1.42719949      -1.36705681       1.33462220       0.00000000
Si       0.83398285       1.99757756      -1.09127948       0.00000000
H        1.91228312       0.28344600      -1.88023918       0.00000000
Si      -0.91189792       3.53993106      -0.63958445       0.00000000
Si      -2.74439262       2.51781500       0.30251176       0.00000000
Si      -2.70705593      -0.02259423      -2.59468135       0.00000000
Si       0.08397495       2.61389342       2.78201528       0.00000000
Si      -2.63476091      -2.82901917       0.00585254       0.00000000
