10
Lattice="16.290000149 0.0 0.0 0.0 16.290000149 0.0 0.0 0.0 29.1751946751" Properties=species:S:1:pos:R:3:initial_magmoms:R:1 pbc="T T T"
Si      -1.37209042      -1.40625055      -1.31216605       0.00000000
Si      -1.34627077       1.27930258       1.46065612       0.00000000
Si       1.33954300      -1.33644790       1.42182394       0.00000000
Si       1.34149780       1.41820741      -1.36004254       0.00000000
Si       2.67185324      -0.02210553      -2.67406414       0.00000000
Si       0.05931189      -2.77811292      -2.59651939       0.00000000
Si      -2.68091048      -2.69575067       0.15836296       0.00000000
Si      -2.77954644       2.59898807       0.17767694       0.00000000
Si      -2.72046260      -0.04375494      -2.68881220       0.00000000
Si       2.68819211       2.75112039       0.02891262       0.00000000
