10
Lattice="16.290000149 0.0 0.0 0.0 16.290000149 0.0 0.0 0.0 29.1751946751" Properties=species:S:1:pos:R:3:initial_magmoms:R:1 pbc="T T T"
H       -0.15926733       0.79733035       1.27230106       0.00000000
Si       1.11312829       1.14872194      -1.68513007       0.00000000
Si      -2.20234286       0.03396465      -0.81314185       0.00000000
Si       0.87519655      -2.07130610       0.79697879       0.00000000
H       -1.44213742      -1.86390182       1.73195626       0.00000000
H       -1.56165715       2.85791763       0.86203948       0.00000000
Si      -2.71570592      -1.90902512       0.89652456       0.00000000
Si       1.97065019      -0.61260175      -2.99185786       0.00000000
Si       0.72988975      -1.65595997       3.15363432       0.00000000
Si      -3.50887744       0.37229166       1.08560899       0.00000000
