10
Lattice="16.290000149 0.0 0.0 0.0 16.290000149 0.0 0.0 0.0 29.1751946751" Properties=species:S:1:pos:R:3:initial_magmoms:R:1 pbc="T T T"
Si       1.43154078       1.44932131       1.15656307       0.00000000
Si       1.42407507      -1.24695064      -1.38360443       0.00000000
Si      -1.28997253       1.41061627      -1.36595344       0.00000000
Si      -1.64932994      -1.06334605       1.41913982       0.00000000
H        2.39894687      -0.82362241       1.32029426       0.00000000
H        0.21716362      -2.73628020       1.68445904       0.00000000
H       -1.08098812       1.41113755       2.77779946       0.00000000
Si      -0.05637969       2.52174089       2.57441918       0.00000000
Si      -2.62575254       2.48249828       0.25221956       0.00000000
Si       2.85865068      -2.44750736       0.01520028       0.00000000
