10
Lattice="16.290000149 0.0 0.0 0.0 16.290000149 0.0 0.0 0.0 29.1751946751" Properties=species:S:1:pos:R:3:initial_magmoms:R:1 pbc="T T T"
Si      -2.19452366       0.72396019       0.46694899       0.00000000
Si      -0.26935515      -2.03035304       1.19697071       0.00000000
Si       1.57682314       1.30824991       1.20689028       0.00000000
Si      -0.28543338       0.88708825      -2.24153021       0.00000000
H        2.24751503      -0.95148262      -1.63398595       0.00000000
H        0.80920576      -1.86311990      -2.18309229       0.00000000
H        1.61495803      -2.60866433      -0.53107607       0.00000000
H        1.04286952      -2.49054554       1.80413569       0.00000000
Si      -2.15231627       2.86930271      -0.51406693       0.00000000
Si      -2.41134356      -0.08210160      -2.92265430       0.00000000
