10
Lattice="16.290000149 0.0 0.0 0.0 16.290000149 0.0 0.0 0.0 29.1751946751" Properties=species:S:1:pos:R:3:initial_magmoms:R:1 pbc="T T T"
Si      -1.30653457       0.33832701       1.89875084       0.00000000
Si       2.20234286      -0.03396465       0.81314185       0.00000000
Si      -1.30419533      -0.10898010      -2.02347480       0.00000000
Si      -0.51336306      -1.94298977       1.70966641       0.00000000
Si      -0.56645218       2.45454464       0.80298888       0.00000000
H        2.04307553       0.76336570       2.08544292       0.00000000
H        0.23446197      -1.54062676      -2.63732090       0.00000000
H       -2.45846890       0.82059247      -1.72828018       0.00000000
H        0.76020544      -1.89786647       2.54509811       0.00000000
H        0.64068571       2.82395298       1.67518133       0.00000000
