10
Lattice="16.290000149 0.0 0.0 0.0 16.290000149 0.0 0.0 0.0 29.1751946751" Properties=species:S:1:pos:R:3:initial_magmoms:R:1 pbc="T T T"
H       -0.60652558      -0.09778887      -1.39871718       0.00000000
Si      -1.70996132       0.44378847       1.53222287       0.00000000
Si       0.48316140      -2.02689956       1.06477790       0.00000000
H        1.51923799      -0.84751984      -1.69951344       0.00000000
Si       1.89983756       1.50078142       0.32302776       0.00000000
Si       0.79780276      -0.92760148      -3.02243347       0.00000000
Si      -2.55446750       2.29882853       0.42411981       0.00000000
Si      -0.33332598       1.47201328       3.16349553       0.00000000
Si       2.07645374      -1.21300228       2.62614680       0.00000000
Si       0.93146221       2.95552731       1.83713283       0.00000000
