10
Lattice="16.290000149 0.0 0.0 0.0 16.290000149 0.0 0.0 0.0 29.1751946751" Properties=species:S:1:pos:R:3:initial_magmoms:R:1 pbc="T T T"
Si      -1.39079134       1.28172979      -1.36554499       0.00000000
Si       1.43814637      -1.36971208      -1.23437331       0.00000000
Si      -1.37759644      -1.31790988       1.35714253       0.00000000
Si       0.87974146       1.88968889       1.06766625       0.00000000
Si      -2.44007912       0.14742450       2.83629573       0.00000000
Si       0.05563035      -2.72036486      -2.57471093       0.00000000
Si      -2.57137652       2.73450458       0.04630103       0.00000000
Si      -0.00821016       2.61962750      -2.70465725       0.00000000
Si       2.78093109      -0.03736926      -2.60703705       0.00000000
Si      -2.74613565      -0.05988204      -2.67367319       0.00000000
