10
Lattice="16.290000149 0.0 0.0 0.0 16.290000149 0.0 0.0 0.0 29.1751946751" Properties=species:S:1:pos:R:3:initial_magmoms:R:1 pbc="T T T"
Si       1.36612828       1.35808102       1.33012630       0.00000000
Si       1.37111302      -1.35668008      -1.33263537       0.00000000
Si      -1.34324083       1.38334681      -1.34319679       0.00000000
Si      -1.37520181      -1.33564969       1.36224819       0.00000000
Si      -0.07237647       2.69255783       2.61147168       0.00000000
Si      -0.00219915      -2.70405857      -2.67568628       0.00000000
Si      -2.69115689       0.02153538      -2.69389160       0.00000000
Si      -0.02039508      -2.70255989       2.69890973       0.00000000
Si       2.72095130       0.00819387      -2.68910687       0.00000000
Si       2.72047889       2.70943427      -0.03191766       0.00000000
