10
Lattice="16.290000149 0.0 0.0 0.0 16.290000149 0.0 0.0 0.0 29.1751946751" Properties=species:S:1:pos:R:3:initial_magmoms:R:1 pbc="T T T"
Si      -1.30306969      -1.35371530       1.43417963       0.00000000
Si       1.36005700      -1.45857403      -1.28709872       0.00000000
Si       1.39061378       1.28694259       1.43479231       0.00000000
Si      -1.30121263       1.52984278      -1.31780270       0.00000000
Si       2.70529661       0.00434943      -2.51957652       0.00000000
Si      -2.53281809       2.73140558       0.27797250       0.00000000
Si      -2.64976400      -2.68662827       0.04522447       0.00000000
Si       2.80279227       2.67755474       0.17860471       0.00000000
Si      -2.64676664      -0.05051529       2.85816253       0.00000000
Si       0.10912117       2.63218709       2.89113050       0.00000000
