10
Lattice="16.290000149 0.0 0.0 0.0 16.290000149 0.0 0.0 0.0 29.1751946751" Properties=species:S:1:pos:R:3:initial_magmoms:R:1 pbc="T T T"
Si       1.72162496      -1.62794116      -0.10249246       0.00000000
Si      -2.05840442      -1.01019178      -0.72167762       0.00000000
Si       1.39892005       1.73781722      -0.91268761       0.00000000
Si      -1.00538623       1.24082560       1.84340550       0.00000000
H        0.78405400      -1.46930914      -2.64732799       0.00000000
H       -0.61833583       0.59127814      -3.05758958       0.00000000
Si      -2.36240840       2.64979658       0.53104689       0.00000000
Si       2.15917436      -1.87680350       2.18060540       0.00000000
Si      -3.47191380       0.94125250      -0.71371279       0.00000000
Si       3.59204277      -0.73287082      -1.38013258       0.00000000
