10
Lattice="16.290000149 0.0 0.0 0.0 16.290000149 0.0 0.0 0.0 29.1751946751" Properties=species:S:1:pos:R:3:initial_magmoms:R:1 pbc="T T T"
Si       1.42513066      -1.36026388      -1.27031715       0.00000000
Si       1.35638686       1.34962651       1.35457511       0.00000000
Si      -1.32481684      -1.38678400       1.38313763       0.00000000
Si      -1.33954300       1.33644790      -1.42182394       0.00000000
Si       0.03518640      -2.70534548      -2.54599962       0.00000000
Si      -2.68581377       2.61575048       0.03883218       0.00000000
Si       2.69710274       2.70272279      -0.03107158       0.00000000
Si       2.70158249      -0.03113019       2.70941280       0.00000000
Si       0.01255959       2.68056839       2.74147634       0.00000000
Si      -2.71163342      -0.06980265      -2.73398999       0.00000000
