10
Lattice="16.290000149 0.0 0.0 0.0 16.290000149 0.0 0.0 0.0 29.1751946751" Properties=species:S:1:pos:R:3:initial_magmoms:R:1 pbc="T T T"
Si      -1.35879778      -1.36526491      -1.33123496       0.00000000
Si      -1.34713414       1.34773687       1.36679952       0.00000000
Si       1.33610581      -1.37570680       1.35323305       0.00000000
Si       1.33835383       1.35707104      -1.38097866       0.00000000
Si      -2.70244586       2.67735926      -0.02176470       0.00000000
Si       2.67825196      -0.01451439       2.70745807       0.00000000
Si       0.00666261      -2.71246421      -2.68152132       0.00000000
Si      -2.68804550       0.00141723      -2.70725384       0.00000000
Si       2.69030167       2.70979265      -0.01963491       0.00000000
Si      -2.70182684      -0.02704140       2.70903353       0.00000000
