10
Lattice="16.290000149 0.0 0.0 0.0 16.290000149 0.0 0.0 0.0 29.1751946751" Properties=species:S:1:pos:R:3:initial_magmoms:R:1 pbc="T T T"
Si       1.35340579       1.39753540      -1.32042847       0.00000000
Si      -1.35172792       1.36936999       1.35889304       0.00000000
Si       1.37648872      -1.34705269       1.35968077       0.00000000
Si      -1.36197433      -1.36809937      -1.36368361       0.00000000
Si       2.73478151       0.04085532      -2.64551329       0.00000000
Si      -2.70800890      -2.69659775       0.01811780       0.00000000
Si       2.69035868       2.72251514       0.08460806       0.00000000
Si      -2.69848414       0.02174715       2.72753060       0.00000000
Si       0.02124216      -2.69094512       2.73567048       0.00000000
Si      -2.71747991       2.71738379      -0.01301214       0.00000000
