10
Lattice="16.290000149 0.0 0.0 0.0 16.290000149 0.0 0.0 0.0 29.1751946751" Properties=species:S:1:pos:R:3:initial_magmoms:R:1 pbc="T T T"
Si      -0.35095176       0.88094692       2.13597435       0.00000000
Si      -1.85152142      -0.93434554      -1.11093306       0.00000000
Si       1.05459832       1.76104676      -1.18325837       0.00000000
Si       1.59959656      -1.77916124      -0.08956785       0.00000000
Si       2.13688964       0.33959763      -2.68052936       0.00000000
Si      -0.67093624      -2.38712033      -2.52277908       0.00000000
Si       1.27141822       2.56710854       2.20634492       0.00000000
Si       2.22308003      -2.18351162       2.05953534       0.00000000
Si       3.43139079      -0.95467546      -1.25362894       0.00000000
Si      -3.16144920      -2.16490844       0.39182286       0.00000000
