10
Lattice="16.290000149 0.0 0.0 0.0 16.290000149 0.0 0.0 0.0 29.1751946751" Properties=species:S:1:pos:R:3:initial_magmoms:R:1 pbc="T T T"
Si       1.33116180       1.36031275       1.37859797       0.00000000
Si      -1.29551113      -1.31419576       1.46944953       0.00000000
Si      -1.38833155       1.36041049      -1.35612140       0.00000000
Si       1.40066145      -1.34946361      -1.36913062       0.00000000
Si      -0.10502163      -2.73513990      -2.53659762       0.00000000
Si       0.07064142       2.53923635      -2.77282801       0.00000000
Si      -2.68545539      -2.65927736       0.19376706       0.00000000
Si       2.67719636       2.68881113      -0.00320344       0.00000000
Si       2.70039332       0.01150074       2.74245079       0.00000000
Si       2.75920023      -2.68887629       0.01195308       0.00000000
