10
Lattice="16.290000149 0.0 0.0 0.0 16.290000149 0.0 0.0 0.0 29.1751946751" Properties=species:S:1:pos:R:3:initial_magmoms:R:1 pbc="T T T"
Si       1.91788688      -1.06237354       0.77781069       0.00000000
Si      -1.25201683      -1.31959101      -1.47180105       0.00000000
Si       1.16315488       1.43801280      -1.50453561       0.00000000
Si      -0.97489135       0.40683950       2.15216659       0.00000000
H       -1.89628634       1.98597582       0.67540576       0.00000000
Si       0.05435973       2.54918629       2.54209306       0.00000000
Si      -2.59960709      -2.60736439      -0.10027514       0.00000000
Si       3.66482649      -0.74004493      -0.71441299       0.00000000
Si       2.68433138       0.12121063      -2.70162303       0.00000000
Si       2.60278364       2.76853114      -0.29496122       0.00000000
