10
Lattice="16.290000149 0.0 0.0 0.0 16.290000149 0.0 0.0 0.0 29.1751946751" Properties=species:S:1:pos:R:3:initial_magmoms:R:1 pbc="T T T"
Si       1.44063874      -0.29100456      -0.44556357       0.00000000
Si      -1.97776892       0.08537589       1.05304948       0.00000000
Si      -1.21718881       1.95673853      -0.22858765       0.00000000
Si       0.66212335       2.66559788       1.04292568       0.00000000
Si       1.07887042      -0.05971914      -2.80933785       0.00000000
Si      -0.59305375       1.62370576      -2.55913138       0.00000000
Si      -0.95306275      -1.25131636       2.66996794       0.00000000
Si       1.89705197      -2.42637923       0.44150822       0.00000000
Si       2.68170869       1.29489211       0.96864564       0.00000000
H        1.64721224       2.41476446      -1.45067820       0.00000000
