10
Lattice="16.290000149 0.0 0.0 0.0 16.290000149 0.0 0.0 0.0 29.1751946751" Properties=species:S:1:pos:R:3:initial_magmoms:R:1 pbc="T T T"
Si      -1.30636027      -1.31418436      -1.44633110       0.00000000
Si      -1.32504490       1.39399559       1.36382365       0.00000000
Si       1.26123697      -1.39236007       1.43019722       0.00000000
Si       1.36689391       1.35916757      -1.37706919       0.00000000
Si      -2.66137877      -2.66886077      -0.11188687       0.00000000
Si       2.66092265       0.02374593       2.68782316       0.00000000
Si       2.69148269      -2.67431792       0.01864295       0.00000000
Si      -2.67186953       2.72839095      -0.04259578       0.00000000
Si       0.07403805       2.76549957       2.67624061       0.00000000
Si      -2.68087790       0.03242036      -2.78284677       0.00000000
