10
Lattice="16.290000149 0.0 0.0 0.0 16.290000149 0.0 0.0 0.0 29.1751946751" Properties=species:S:1:pos:R:3:initial_magmoms:R:1 pbc="T T T"
Si       1.28826208       1.44026570      -1.28122867       0.00000000
Si      -1.03122217       1.62297109       1.31632643       0.00000000
Si       1.52746444      -0.99751816       1.50485654       0.00000000
Si      -1.57682314      -1.30824991      -1.20689028       0.00000000
Si       2.47863755       2.58921733       0.41069922       0.00000000
Si      -1.55393569       0.36900108       3.24845370       0.00000000
Si       2.59346576       0.02922426      -2.61952403       0.00000000
H        0.67069189      -2.25973253      -2.84087623       0.00000000
Si       3.05290893       0.85035430       1.93002665       0.00000000
Si       2.52622064      -2.75867895       0.23407259       0.00000000
