10
Lattice="16.290000149 0.0 0.0 0.0 16.290000149 0.0 0.0 0.0 29.1751946751" Properties=species:S:1:pos:R:3:initial_magmoms:R:1 pbc="T T T"
Si       1.41954319       1.30971601       1.31480932       0.00000000
Si       1.37883448      -1.34708527      -1.32128622       0.00000000
Si      -1.34855137      -1.35832537       1.35282460       0.00000000
Si      -1.36269109       1.39429369      -1.30433543       0.00000000
Si       0.05751999       2.67975389       2.57681154       0.00000000
Si       0.00791694      -2.70861977      -2.64829077       0.00000000
Si       2.73061127       0.04432509      -2.64843665       0.00000000
Si      -2.71712315       0.04075758      -2.66492063       0.00000000
Si       0.01234782       2.73678519      -2.64654026       0.00000000
Si       2.73414621      -2.67670766       0.06727800       0.00000000
