10
Lattice="16.290000149 0.0 0.0 0.0 16.290000149 0.0 0.0 0.0 29.1751946751" Properties=species:S:1:pos:R:3:initial_magmoms:R:1 pbc="T T T"
Si       1.35956667       1.35081568      -1.35396243       0.00000000
Si       1.37039952      -1.34205166       1.35787191       0.00000000
Si      -1.33930949       1.36270738       1.37213858       0.00000000
Si      -1.34840150      -1.37766160      -1.35197852       0.00000000
Si      -2.68810741      -0.04746906       2.67901225       0.00000000
Si       2.66864737      -2.69905754      -0.06115121       0.00000000
Si      -0.02921937       2.69975801      -2.68478894       0.00000000
Si      -2.69128396      -0.01979235      -2.72114123       0.00000000
Si       2.67783493      -0.01166364      -2.74512324       0.00000000
Si       2.72804071       0.03992679       2.70783734       0.00000000
