10
Lattice="16.290000149 0.0 0.0 0.0 16.290000149 0.0 0.0 0.0 29.1751946751" Properties=species:S:1:pos:R:3:initial_magmoms:R:1 pbc="T T T"
Si       0.15926733      -0.79733035      -1.27230106       0.00000000
H       -1.40238982       2.06058728      -0.41026159       0.00000000
Si       0.93757096      -0.15863202       2.54483553       0.00000000
H       -1.28287009      -2.66123216       0.45965519       0.00000000
Si      -2.04307553      -0.76336570      -2.08544292       0.00000000
Si       1.03446388      -2.86863645      -0.47532227       0.00000000
Si      -0.78405400       1.46930914       2.64732799       0.00000000
Si       2.80798878       0.73643833       1.26719541       0.00000000
Si       0.88915708      -2.45329031       1.88133325       0.00000000
Si       1.27239562       0.35139159      -2.95743113       0.00000000
