10
Lattice="16.290000149 0.0 0.0 0.0 16.290000149 0.0 0.0 0.0 29.1751946751" Properties=species:S:1:pos:R:3:initial_magmoms:R:1 pbc="T T T"
Si      -1.36001953      -1.35446464      -1.35369986       0.00000000
Si      -1.36881613       1.35365014       1.35183265       0.00000000
Si       1.34825815      -1.36065484       1.36563251       0.00000000
Si       1.35524656       1.34389243      -1.37598971       0.00000000
Si       2.69000030       2.69521310       0.01832202       0.00000000
Si      -2.69112269      -2.71199180       0.02972952       0.00000000
Si       0.01891269      -2.71366967      -2.68983625       0.00000000
Si       2.71336016      -0.00524538       2.71273878       0.00000000
Si      -0.02124216       2.69094512      -2.73567048       0.00000000
Si      -2.71972630       2.71269227      -0.00813988       0.00000000
