10
Lattice="16.290000149 0.0 0.0 0.0 16.290000149 0.0 0.0 0.0 29.1751946751" Properties=species:S:1:pos:R:3:initial_magmoms:R:1 pbc="T T T"
Si      -0.48316140       2.02689956      -1.06477790       0.00000000
Si       1.59329233       0.81389728       1.56136889       0.00000000
Si       1.29717271      -1.50133528      -1.32114034       0.00000000
Si      -1.87041782      -0.89507035       1.27764013       0.00000000
H       -2.80798878      -0.73643833      -1.26719541       0.00000000
H        1.03607659       1.17937972      -2.76429134       0.00000000
H       -1.08968698       1.92911069      -2.46349509       0.00000000
Si      -2.19312272       2.47068803       0.46744497       0.00000000
Si       2.22347099      -2.54415593       0.51351260       0.00000000
Si       3.29510865      -0.78371191       1.57583979       0.00000000
