10
Lattice="16.290000149 0.0 0.0 0.0 16.290000149 0.0 0.0 0.0 29.1751946751" Properties=species:S:1:pos:R:3:initial_magmoms:R:1 pbc="T T T"
Si       1.36925596      -1.34811154       1.34141710       0.00000000
Si       1.37966527       1.34361550      -1.33526113       0.00000000
Si      -1.35057133       1.37663533       1.34879843       0.00000000
Si      -1.38013768      -1.34441371      -1.35685078       0.00000000
Si      -0.05426199       2.69001008      -2.59723418       0.00000000
Si      -0.00578295      -2.69060303       2.68362193       0.00000000
Si      -2.72754876       0.02117700       2.68093781       0.00000000
Si       2.72445365      -2.70102863      -0.02450716       0.00000000
Si       2.72671796       0.01482390       2.69943489       0.00000000
Si      -0.04412961      -2.78570406      -2.64610263       0.00000000
