10
Lattice="16.290000149 0.0 0.0 0.0 16.290000149 0.0 0.0 0.0 29.1751946751" Properties=species:S:1:pos:R:3:initial_magmoms:R:1 pbc="T T T"
Si      -1.35524656      -1.34389243       1.37598971       0.00000000
Si       1.33475374       1.35132067       1.39431173       0.00000000
Si      -1.37648872       1.34705269      -1.35968077       0.00000000
Si       1.36282141      -1.37357281      -1.34979038       0.00000000
Si       2.71435385      -2.69239493       0.05829204       0.00000000
Si       2.69860142       2.71293662       0.06471058       0.00000000
Si      -2.71526609      -2.69835707       0.02228985       0.00000000
Si      -0.02308293       2.74458810      -2.68010924       0.00000000
Si       2.73000854      -0.02339244      -2.70045310       0.00000000
Si      -2.72821664       2.71642268      -0.00078773       0.00000000
