10
Lattice="16.290000149 0.0 0.0 0.0 16.290000149 0.0 0.0 0.0 29.1751946751" Properties=species:S:1:pos:R:3:initial_magmoms:R:1 pbc="T T T"
Si       1.34214614       1.36119241       1.35422501       0.00000000
Si      -1.33610581       1.37570680      -1.35323305       0.00000000
Si       1.36572266      -1.35120664      -1.34970286       0.00000000
Si      -1.35418771      -1.34775316       1.37383074       0.00000000
Si      -2.69490359       0.01044189      -2.68446801       0.00000000
Si       2.67203243       0.00327429       2.71962412       0.00000000
Si      -0.00430056      -2.72039744      -2.67478185       0.00000000
Si       2.69399135      -2.71166600       0.02479892       0.00000000
Si      -2.68323995       2.72344367       0.01356647       0.00000000
Si       2.69301395       2.72660393      -0.00948194       0.00000000
