10
Lattice="16.290000149 0.0 0.0 0.0 16.290000149 0.0 0.0 0.0 29.1751946751" Properties=species:S:1:pos:R:3:initial_magmoms:R:1 pbc="T T T"
Si       1.36384768       1.36161595      -1.32960115       0.00000000
Si      -1.35009892       1.36506943       1.35577130       0.00000000
Si       1.38377035      -1.33810948       1.35028636       0.00000000
Si      -1.33475374      -1.35132067      -1.39431173       0.00000000
Si       2.69985575      -0.07967439      -2.61885300       0.00000000
Si      -2.69000030      -2.69521310      -0.01832202       0.00000000
Si      -0.02088378       2.71824716      -2.66938444       0.00000000
Si       0.02335986      -2.70045848       2.69441675       0.00000000
Si      -2.71867070       0.02129103       2.69879303       0.00000000
Si       0.01643661       2.72720666       2.70818745       0.00000000
