10
Lattice="16.290000149 0.0 0.0 0.0 16.290000149 0.0 0.0 0.0 29.1751946751" Properties=species:S:1:pos:R:3:initial_magmoms:R:1 pbc="T T T"
Si      -0.96837535       1.45474588       1.51410508       0.00000000
Si       1.56861298      -1.27879759       1.12534561       0.00000000
Si       1.61960068       1.02972349      -1.39168596       0.00000000
Si      -1.89983756      -1.50078142      -0.32302776       0.00000000
H       -0.38059956      -2.34830126      -2.02254120       0.00000000
H        0.76494583      -0.71255719      -3.14791598       0.00000000
H       -2.50636313      -1.59857029      -1.72174494       0.00000000
Si       0.17661618      -2.71378370       2.30311904       0.00000000
Si      -2.65662209       2.38861901       0.20720223       0.00000000
H       -2.13100895       2.63567315      -1.18439620       0.00000000
