10
Lattice="16.290000149 0.0 0.0 0.0 16.290000149 0.0 0.0 0.0 29.1751946751" Properties=species:S:1:pos:R:3:initial_magmoms:R:1 pbc="T T T"
Si       1.34382727      -1.33094188      -1.38690123       0.00000000
Si      -1.36306576       1.33954300      -1.36402788       0.00000000
Si      -1.35177679      -1.39141036       1.32715043       0.00000000
Si       1.37070577       1.34770429       1.35600470       0.00000000
Si      -2.73061127      -0.04432509       2.64843665       0.00000000
Si       2.68902290      -2.71169858      -0.03206354       0.00000000
Si      -2.69837336      -0.06481791      -2.70264416       0.00000000
Si      -2.71826345       2.69246009       0.00189639       0.00000000
Si       2.71832057       2.70124040      -0.00195474       0.00000000
Si       0.02647125       2.71264340       2.70681621       0.00000000
