10
Lattice="16.290000149 0.0 0.0 0.0 16.290000149 0.0 0.0 0.0 29.1751946751" Properties=species:S:1:pos:R:3:initial_magmoms:R:1 pbc="T T T"
H        0.52561314       0.24705414      -1.39159844       0.00000000
Si       1.68824675      -0.93387313       1.30690285       0.00000000
Si      -0.85261861       1.87447403       1.11096224       0.00000000
Si      -1.79768297      -1.59057190      -0.10611018       0.00000000
H        1.79913278       2.01046295      -0.96809131       0.00000000
H       -1.05186160       1.11583243      -2.55309211       0.00000000
H       -0.15330519      -0.67702870      -3.01271813       0.00000000
Si      -2.16422426       0.50749866       2.59828449       0.00000000
Si       2.65662209      -2.38861901      -0.20720223       0.00000000
Si       0.42345855      -2.41738715       2.63326555       0.00000000
