10
Lattice="16.290000149 0.0 0.0 0.0 16.290000149 0.0 0.0 0.0 29.1751946751" Properties=species:S:1:pos:R:3:initial_magmoms:R:1 pbc="T T T"
Si       1.27866401      -1.37303361       1.38754892       0.00000000
Si      -1.34699861      -1.21399271      -1.48105250       0.00000000
Si      -1.43255812       1.30719269       1.35187933       0.00000000
Si       1.33608626       1.40592638      -1.35356478       0.00000000
Si      -1.63351560       0.61160968      -3.05024035       0.00000000
Si      -0.29823732       2.58804282      -2.56785768       0.00000000
Si       2.60838415      -2.68714793      -0.03211605       0.00000000
Si      -2.82534088      -2.52074557      -0.10885849       0.00000000
Si      -0.07035651       2.70243120       2.67016925       0.00000000
Si       2.57995810      -0.04569182       2.81277760       0.00000000
