10
Lattice="16.290000149 0.0 0.0 0.0 16.290000149 0.0 0.0 0.0 29.1751946751" Properties=species:S:1:pos:R:3:initial_magmoms:R:1 pbc="T T T"
Si      -1.32988629       1.35791812      -1.36539911       0.00000000
Si       1.30750057       1.43125570       1.32674198       0.00000000
Si      -1.34118666      -1.37285605       1.35953490       0.00000000
Si       1.37754757      -1.34659657      -1.35734676       0.00000000
Si       2.66395259       0.07156197       2.62725546       0.00000000
Si      -2.65012238       2.69405651       0.04195393       0.00000000
Si       2.68037291       2.68161095      -0.10812327       0.00000000
Si      -2.67203243      -0.00327429      -2.71962412       0.00000000
Si      -2.61861410      -0.01521486       2.78135883       0.00000000
Si       0.02195892      -2.71494029      -2.69482521       0.00000000
