10
Lattice="16.290000149 0.0 0.0 0.0 16.290000149 0.0 0.0 0.0 29.1751946751" Properties=species:S:1:pos:R:3:initial_magmoms:R:1 pbc="T T T"
H       -1.18482058       0.51453594      -0.79948786       0.00000000
Si       1.33578001      -1.07188201      -1.61817300       0.00000000
H       -1.75690910       0.63265474       1.53572390       0.00000000
Si       1.30326517       1.67277125       1.17255107       0.00000000
Si      -0.69550156      -1.86241943       1.41712673       0.00000000
H       -0.55226359       2.17171766      -1.90239774       0.00000000
H        1.54476442      -1.07136073       2.52557990       0.00000000
Si      -3.06913377       1.09284724       0.92855892       0.00000000
H       -1.99057286       1.26008038      -2.45150408       0.00000000
Si       2.56937285       0.03924261       2.32219962       0.00000000
