10
Lattice="16.290000149 0.0 0.0 0.0 16.290000149 0.0 0.0 0.0 29.1751946751" Properties=species:S:1:pos:R:3:initial_magmoms:R:1 pbc="T T T"
Si       1.33024141      -1.41950084      -1.28639268       0.00000000
Si      -1.34866540      -1.37368684       1.33730340       0.00000000
Si       1.38564370       1.35019666       1.32499147       0.00000000
Si      -1.30020265       1.34939845      -1.41878972       0.00000000
Si       2.66387114      -0.07931601      -2.61513316       0.00000000
Si       0.01453068       2.69596244       2.66343270       0.00000000
Si      -2.67817376       2.69822675      -0.06812408       0.00000000
Si      -2.70861977      -0.01629000       2.67685329       0.00000000
Si      -2.72878680      -0.05439231      -2.66152756       0.00000000
Si       0.03393207      -2.73287558       2.65963992       0.00000000
