10
Lattice="16.290000149 0.0 0.0 0.0 16.290000149 0.0 0.0 0.0 29.1751946751" Properties=species:S:1:pos:R:3:initial_magmoms:R:1 pbc="T T T"
Si       1.33258717       1.33012738      -1.39979667       0.00000000
Si      -1.19943271       1.47242053       1.43043062       0.00000000
Si       1.46989558      -1.20935332       1.45674665       0.00000000
Si      -1.56471967      -1.12355389      -1.46727889       0.00000000
H        1.82702126      -3.02246292      -0.79187313       0.00000000
Si      -0.17278803       2.64073934      -2.69214109       0.00000000
Si      -2.52620435       0.09016515       2.80668582       0.00000000
Si       2.92284957       2.46084887      -0.05665823       0.00000000
Si      -2.59849937       2.89659009       0.20615193       0.00000000
H        2.02083968       3.20263032       0.92059409       0.00000000
