10
Lattice="16.290000149 0.0 0.0 0.0 16.290000149 0.0 0.0 0.0 29.1751946751" Properties=species:S:1:pos:R:3:initial_magmoms:R:1 pbc="T T T"
Si      -1.38259747       1.35918874      -1.32233652       0.00000000
Si      -1.37697742      -1.35545833       1.33213939       0.00000000
Si       1.34993602       1.36980168       1.35145337       0.00000000
Si       1.35057133      -1.37663533      -1.34879843       0.00000000
Si      -0.00746082      -2.69721677       2.68560584       0.00000000
Si      -0.03393207       2.73287558      -2.65963992       0.00000000
Si      -2.73818612      -0.01252701      -2.66069023       0.00000000
Si       2.72445365       0.02319696       2.68796904       0.00000000
Si      -2.69710274       0.01295055       2.71588970       0.00000000
Si       2.73023660      -0.03301983      -2.68405956       0.00000000
