10
Lattice="16.290000149 0.0 0.0 0.0 16.290000149 0.0 0.0 0.0 29.1751946751" Properties=species:S:1:pos:R:3:initial_magmoms:R:1 pbc="T T T"
Si       1.53635878       0.72167959       1.60895364       0.00000000
Si      -1.22030020      -1.31916421       1.49703759       0.00000000
Si       0.62133319      -1.07393455      -2.04661073       0.00000000
Si      -1.48760281       1.86849560      -0.35135687       0.00000000
H        1.86416246      -1.84693741       0.72275710       0.00000000
H        3.08509797       0.33127344      -1.02302820       0.00000000
Si      -1.87281245       1.22367223      -2.57453588       0.00000000
Si       0.30566556       2.57388518       2.27426478       0.00000000
Si       3.15578028       1.39882231       0.04580506       0.00000000
Si      -2.55290366       0.22760388       2.65470931       0.00000000
