10
Lattice="16.290000149 0.0 0.0 0.0 16.290000149 0.0 0.0 0.0 29.1751946751" Properties=species:S:1:pos:R:3:initial_magmoms:R:1 pbc="T T T"
Si       2.29930094       0.05856255      -0.45880911       0.00000000
Si      -0.87519655       2.07130610      -0.79697879       0.00000000
Si      -0.14530680       0.41534613       2.35665552       0.00000000
Si      -0.92409913      -2.07758101      -0.81754731       0.00000000
H       -2.31733397       0.20740428       0.93497746       0.00000000
H       -1.03446388       2.86863645       0.47532227       0.00000000
Si      -3.59090247       0.16228098       0.09954576       0.00000000
Si      -2.99209836      -1.35380653      -1.66383218       0.00000000
Si       3.07069761       2.10373949       0.42137734       0.00000000
Si       2.05830668       0.03324789       3.15844823       0.00000000
