10
Lattice="16.290000149 0.0 0.0 0.0 16.290000149 0.0 0.0 0.0 29.1751946751" Properties=species:S:1:pos:R:3:initial_magmoms:R:1 pbc="T T T"
Si       1.34990344       1.39511158      -1.31063435       0.00000000
Si      -1.32388831       1.35189082       1.38474226       0.00000000
Si      -1.33695289      -1.32497974      -1.40503653       0.00000000
Si       1.38473146      -1.35663121       1.33978329       0.00000000
Si       2.67019166      -0.09383040      -2.51929848       0.00000000
Si       0.02088378      -2.71824716       2.66938444       0.00000000
Si       2.71060715       2.67779258       0.09939989       0.00000000
Si      -0.03290580       2.71968394      -2.67628729       0.00000000
Si      -2.71142165      -0.00733050       2.68896099       0.00000000
Si      -2.69436602       2.71282259       0.07142088       0.00000000
