10
Lattice="16.290000149 0.0 0.0 0.0 16.290000149 0.0 0.0 0.0 29.1751946751" Properties=species:S:1:pos:R:3:initial_magmoms:R:1 pbc="T T T"
Si      -1.39175245       1.35267274       1.31434252       0.00000000
Si       1.34172586       1.34887717      -1.37088405       0.00000000
Si      -1.39908295      -1.37150398      -1.31241696       0.00000000
Si       1.34907265      -1.31419576       1.42468311       0.00000000
Si       2.58688460      -2.74175364       0.01158255       0.00000000
Si       2.68540652       2.67563252       0.03667322       0.00000000
Si      -2.89277823      -0.00759114       2.47729496       0.00000000
Si      -0.05528826       2.64168416       2.74430634       0.00000000
Si       2.66582594      -0.02231730      -2.74383953       0.00000000
Si      -2.73329913       2.70049106      -0.06686955       0.00000000
