10
Lattice="16.290000149 0.0 0.0 0.0 16.290000149 0.0 0.0 0.0 29.1751946751" Properties=species:S:1:pos:R:3:initial_magmoms:R:1 pbc="T T T"
Si       1.34594497       1.33007851      -1.34715586       0.00000000
Si      -1.35632170       1.39499416       1.28933938       0.00000000
Si       1.37047771      -1.36093177       1.31332139       0.00000000
Si      -1.30129408      -1.32734179      -1.42522868       0.00000000
Si      -2.68082252       0.01119123       2.65114994       0.00000000
Si      -0.01705563      -2.72015309       2.61754012       0.00000000
Si       0.03624525       2.73833273       2.61876547       0.00000000
Si       2.72606637       0.01078398       2.65167509       0.00000000
Si      -2.57995810       0.04569182      -2.81277760       0.00000000
Si      -2.65031461       2.74812303      -0.14260835       0.00000000
