10
Lattice="16.290000149 0.0 0.0 0.0 16.290000149 0.0 0.0 0.0 29.1751946751" Properties=species:S:1:pos:R:3:initial_magmoms:R:1 pbc="T T T"
Si       0.46113732       2.19709748      -0.63085523       0.00000000
Si       1.07463502       0.05926302       2.09361197       0.00000000
Si      -2.31406620       0.14636565       0.56363559       0.00000000
Si      -0.43111485      -1.89897419      -1.51582641       0.00000000
H        2.71901279       0.97280623      -0.81299597       0.00000000
H       -0.09811467      -2.94231612       1.05681308       0.00000000
H        1.82045639       2.76566736      -0.35336996       0.00000000
Si      -2.09011942       1.99731692       2.00591133       0.00000000
Si      -1.30525255      -3.31172445       0.18462063       0.00000000
Si      -1.98289212      -0.76007512      -2.87454441       0.00000000
