10
Lattice="16.290000149 0.0 0.0 0.0 16.290000149 0.0 0.0 0.0 29.1751946751" Properties=species:S:1:pos:R:3:initial_magmoms:R:1 pbc="T T T"
Si       1.39968568       1.41610600       1.25762594       0.00000000
Si      -1.26123697       1.39236007      -1.43019722       0.00000000
Si       1.43024572      -1.28195785      -1.41155427       0.00000000
Si      -1.29689578      -1.58931757       1.27731920       0.00000000
Si      -2.52705143      -2.72679941      -0.34852688       0.00000000
Si       0.28199619      -2.67543704       2.59936397       0.00000000
Si      -2.58628187       2.78635566      -0.06637357       0.00000000
Si       2.86895930       0.12234653       2.52864330       0.00000000
Si      -2.56759724       0.07817571      -2.87652832       0.00000000
Si       2.86872010      -2.63202419      -0.12449056       0.00000000
