10
Lattice="16.290000149 0.0 0.0 0.0 16.290000149 0.0 0.0 0.0 29.1751946751" Properties=species:S:1:pos:R:3:initial_magmoms:R:1 pbc="T T T"
Si       1.36368478       1.34991973      -1.34981956       0.00000000
Si       1.37337733      -1.35193969       1.34550163       0.00000000
Si      -1.35167905       1.36146934       1.36017675       0.00000000
Si      -1.36956547      -1.36192546      -1.35180347       0.00000000
Si      -0.02616174       2.69856884      -2.68260080       0.00000000
Si      -0.00109143      -2.67281435       2.70999631       0.00000000
Si       2.66429468      -2.71974584      -0.06689872       0.00000000
Si       2.68381010      -0.01848915      -2.73356987       0.00000000
Si      -2.68786957       0.01000206       2.72963121       0.00000000
Si       2.72523557       2.69255946       0.02789149       0.00000000
