10
Lattice="10.86 0.0 0.0 0.0 10.86 0.0 0.0 0.0 10.86" Properties=species:S:1:pos:R:3:initial_magmoms:R:1 pbc="T T T"
Si      -1.37369226      -1.29976824      -1.24398042       0.00000000
Si       1.35750000       1.35750000      -1.35750000       0.00000000
Si      -1.35750000       1.35750000       1.35750000       0.00000000
Si       1.39948476      -1.38253230       1.34871426       0.00000000
Si      -0.00309510      -2.53301898      -2.80357416       0.00000000
Si       2.71500000       0.00000000      -2.71500000       0.00000000
Si      -2.71500000      -2.71500000       0.00000000       0.00000000
Si      -2.71500000       0.00000000      -2.71500000       0.00000000
Si       2.71500000       2.71500000       0.00000000       0.00000000
Si       2.71500000       0.00000000       2.71500000       0.00000000
