10
Lattice="10.86 0.0 0.0 0.0 10.86 0.0 0.0 0.0 10.86" Properties=species:S:1:pos:R:3:initial_magmoms:R:1 pbc="T T T"
Si      -1.28159946       1.40187396      -1.32705942       0.00000000
Si       1.43340054      -1.31312604      -1.32705942       0.00000000
Si       1.43340054       1.40187396       1.38794058       0.00000000
Si      -2.45692296      -0.00906810       2.70453096       0.00000000
Si      -2.63909946       0.04437396      -2.68455942       0.00000000
Si      -2.76853980      -2.57605716       0.04585092       0.00000000
Si       0.07590054      -2.67062604      -2.68455942       0.00000000
Si       0.10073736       2.71388142       2.65714878       0.00000000
Si      -2.60203428       2.80852632      -0.12915798       0.00000000
Si       0.07590054       2.75937396      -2.68455942       0.00000000
