10
Lattice="16.28999089631971 0.0 0.0 0.0 16.28999089631971 0.0 0.0 0.0 34.69518985606464" Properties=species:S:1:pos:R:3:initial_magmoms:R:1 pbc="T T T"
Si      -1.35430173      -1.35378809      -1.35672146       0.00000000
Si       1.35954711      -1.34858187       1.35908074       0.00000000
Si      -1.35083196       1.36089755       1.36140532       0.00000000
Si       1.36083402       1.36125593      -1.35672146       0.00000000
Si      -2.70164437      -0.02976672       2.72100648       0.00000000
Si      -2.71142489       0.00368480      -2.71444909       0.00000000
Si       0.00348606      -2.71144674      -2.71448378       0.00000000
Si      -2.71009399       2.71811519       0.00232458       0.00000000
Si       2.71831230      -2.71165851       0.00058982       0.00000000
Si      -2.71586717      -2.71426491      -0.00052043       0.00000000
