10
Lattice="16.28999089631971 0.0 0.0 0.0 16.28999089631971 0.0 0.0 0.0 34.69518985606464" Properties=species:S:1:pos:R:3:initial_magmoms:R:1 pbc="T T T"
Si       0.60128019      -2.29670008      -0.31638561       0.00000000
Si       1.95810687       1.34436646       0.32332465       0.00000000
Si      -0.56637072       0.57481057      -2.39167955       0.00000000
Si      -1.37389860      -0.16420157       2.29200022       0.00000000
Si       3.04728885      -0.38498809       1.81747384       0.00000000
Si       2.18859408      -2.58785125       1.41115825       0.00000000
Si      -1.38486177      -3.68905525       0.10561222       0.00000000
Si       1.79317062       2.87981299       2.21053587       0.00000000
Si       2.54179386       2.51185447      -1.95323619       0.00000000
Si      -1.44557460      -1.33011664      -3.60545675       0.00000000
