10
Lattice="16.28999089631971 0.0 0.0 0.0 16.28999089631971 0.0 0.0 0.0 34.69518985606464" Properties=species:S:1:pos:R:3:initial_magmoms:R:1 pbc="T T T"
Si       0.26399574      -0.28792575      -2.34262053       0.00000000
Si       1.73278359      -1.22201716       1.10580571       0.00000000
Si       0.51132681       2.30132088       0.58728581       0.00000000
Si      -2.19164031      -1.06606810       0.48878611       0.00000000
Si      -1.28392893       2.71259451       2.07189381       0.00000000
Si       2.52473823       0.26107983       2.82332265       0.00000000
Si      -2.83009428      -2.06972921      -1.55649648       0.00000000
Si      -1.06145640      -2.04934227      -3.08832466       0.00000000
Si      -0.57917466       1.59286878      -3.48291328       0.00000000
Si       2.64331314       2.37351816       1.60316153       0.00000000
