10
Lattice="16.28999089631971 0.0 0.0 0.0 16.28999089631971 0.0 0.0 0.0 34.69518985606464" Properties=species:S:1:pos:R:3:initial_magmoms:R:1 pbc="T T T"
Si       2.01595266       0.86317452       0.87424988       0.00000000
Si       0.60354450      -2.13135102      -0.84857543       0.00000000
Si      -1.06887975       1.38888540      -1.63712814       0.00000000
Si      -1.41542344      -1.08147681       1.68448710       0.00000000
Si       1.53367092      -2.77903653       1.26883850       0.00000000
Si      -2.67663338       2.26035153      -0.08226234       0.00000000
Si       2.85912306      -1.01762001       2.01454263       0.00000000
Si      -1.52491830      -3.20808581      -1.01424505       0.00000000
Si       1.28640501       2.77195527       2.21404008       0.00000000
Si      -3.03675641      -2.38238155       0.65775178       0.00000000
