10
Lattice="16.28999089631971 0.0 0.0 0.0 16.28999089631971 0.0 0.0 0.0 34.69518985606464" Properties=species:S:1:pos:R:3:initial_magmoms:R:1 pbc="T T T"
Si      -2.12007834       0.69513991       0.82872977       0.00000000
Si      -0.64979181      -1.34637732      -1.87413112       0.00000000
Si       0.83098548       2.14752536      -0.78352191       0.00000000
Si       1.33014366      -1.03395141       1.77295989       0.00000000
Si      -2.91687111       1.54694564      -1.22980639       0.00000000
Si      -1.21396338       3.16705130      -1.49137357       0.00000000
Si      -2.52299520      -0.23002295      -2.80684243       0.00000000
Si       1.34403903       3.42158255       1.20499931       0.00000000
Si      -3.60260192      -1.15133715       0.83355240       0.00000000
Si      -1.50167736      -3.46551084      -1.11534689       0.00000000
