10
Lattice="16.28999089631971 0.0 0.0 0.0 16.28999089631971 0.0 0.0 0.0 34.69518985606464" Properties=species:S:1:pos:R:3:initial_magmoms:R:1 pbc="T T T"
Si      -2.04709914       0.61866162       1.03856639       0.00000000
Si       0.70687197       2.12110461      -0.82779300       0.00000000
Si      -0.51305355      -1.27405719      -1.98852122       0.00000000
Si       2.23402689      -0.90710865       0.97934167       0.00000000
Si      -2.95443585       1.39352805      -1.07183910       0.00000000
Si      -1.36694277       2.93389416      -1.82500270       0.00000000
Si      -2.55800241      -0.25453125      -2.69637288       0.00000000
Si      -1.34403903      -3.42158255      -1.20499931       0.00000000
Si      -1.52479287       2.01313449       3.07444658       0.00000000
Si       2.16541341      -3.33238503       0.66469082       0.00000000
