10
Lattice="16.28999089631971 0.0 0.0 0.0 16.28999089631971 0.0 0.0 0.0 34.69518985606464" Properties=species:S:1:pos:R:3:initial_magmoms:R:1 pbc="T T T"
Si       0.36911511      -0.81318051      -2.15245609       0.00000000
Si      -2.31166503      -0.23592807       0.53160000       0.00000000
Si       1.73498274      -0.61082613       1.64968781       0.00000000
Si      -2.37443040       1.31184999       2.32208096       0.00000000
Si       1.16098830       0.97832853      -3.43874627       0.00000000
Si       1.35083196       0.93947688       3.38226247       0.00000000
Si      -1.58262237      -1.64889009      -3.35138374       0.00000000
Si       1.78313598      -2.80974807       2.40909655       0.00000000
Si       1.81988622       2.92320792      -2.27170352       0.00000000
Si      -3.05635749      -2.33352621       1.70200818       0.00000000
