10
Lattice="16.28999089631971 0.0 0.0 0.0 16.28999089631971 0.0 0.0 0.0 34.69518985606464" Properties=species:S:1:pos:R:3:initial_magmoms:R:1 pbc="T T T"
Si       2.04709914      -0.61866162      -1.03856639       0.00000000
Si      -1.81055205      -1.53802035       0.09818744       0.00000000
Si      -0.90733671       0.77486643      -2.11040549       0.00000000
Si       0.52230627       1.39447287       2.03588018       0.00000000
Si      -2.04304293      -1.43588205       2.42631652       0.00000000
Si      -0.15732882      -0.45137961       3.52267541       0.00000000
Si       2.75397111       1.50244299      -1.86635939       0.00000000
Si       0.68015637       2.31523254      -2.86356910       0.00000000
Si      -0.51090327      -0.87319287      -3.73493928       0.00000000
Si       1.53404559      -1.89271881      -3.02708762       0.00000000
