10
Lattice="16.28999089631971 0.0 0.0 0.0 16.28999089631971 0.0 0.0 0.0 34.69518985606464" Properties=species:S:1:pos:R:3:initial_magmoms:R:1 pbc="T T T"
Si       1.35549090       1.35640314      -1.35717250       0.00000000
Si       1.35795069      -1.35755973       1.35588878       0.00000000
Si      -1.35791811       1.35783666       1.35696433       0.00000000
Si      -1.35793440      -1.35772263      -1.35755415       0.00000000
Si      -0.00027693      -2.71176372       2.71208981       0.00000000
Si       2.71454931      -0.00301365       2.71149999       0.00000000
Si      -0.00027693      -2.71454931      -2.71479604       0.00000000
Si      -2.71448252      -2.71494027      -0.00041634       0.00000000
Si       2.71489140      -2.71456560      -0.00045104       0.00000000
Si       2.71484253       2.71515204      -0.00020817       0.00000000
