10
Lattice="16.28999089631971 0.0 0.0 0.0 16.28999089631971 0.0 0.0 0.0 34.69518985606464" Properties=species:S:1:pos:R:3:initial_magmoms:R:1 pbc="T T T"
Si       2.28423267      -0.58047786      -0.16577371       0.00000000
Si      -0.85056606       1.56380742       1.56440698       0.00000000
Si      -0.66241656      -2.03297571       1.08287218       0.00000000
Si      -0.26976240       0.90145602      -2.25973367       0.00000000
Si      -0.27826578      -3.58327872      -0.64970249       0.00000000
Si       2.08490823      -2.93736393      -0.75177579       0.00000000
Si       3.11503896       0.26173143       1.97037563       0.00000000
Si      -2.66937714       1.62334737      -2.07852060       0.00000000
Si      -0.06098976       1.01555118       3.75082968       0.00000000
Si      -3.24653184       1.38904830       1.83721542       0.00000000
