10
Lattice="16.28999089631971 0.0 0.0 0.0 16.28999089631971 0.0 0.0 0.0 34.69518985606464" Properties=species:S:1:pos:R:3:initial_magmoms:R:1 pbc="T T T"
Si       0.73247985       2.07581841       0.80284714       0.00000000
Si       1.75971096      -1.55235555      -0.02657653       0.00000000
Si      -1.90560420      -0.64879812       1.25301748       0.00000000
Si      -0.78957630       0.54825624      -2.18642270       0.00000000
Si       1.66280175       3.07652940      -1.10702004       0.00000000
Si      -1.25656173       3.13150815       1.47798122       0.00000000
Si      -3.40513128      -1.39579236      -0.35989341       0.00000000
Si       2.63998998      -1.38466629       2.18812276       0.00000000
Si       3.17602872      -0.75381975      -1.78045405       0.00000000
Si       0.75300525      -3.59269434      -0.68429361       0.00000000
