10
Lattice="16.28999089631971 0.0 0.0 0.0 16.28999089631971 0.0 0.0 0.0 34.69518985606464" Properties=species:S:1:pos:R:3:initial_magmoms:R:1 pbc="T T T"
Si       0.59204376      -2.15892577       0.54676180       0.00000000
Si       1.32545214       1.76141652       0.74570413       0.00000000
Si      -1.76863788      -0.02038693       1.53182818       0.00000000
Si      -0.93012642       0.64768551      -2.11741393       0.00000000
Si      -1.53367092       2.77903653      -1.26883850       0.00000000
Si      -2.94909436       1.69755972       0.41564861       0.00000000
Si      -1.44963081      -3.16735822      -0.12500684       0.00000000
Si       3.37061277       1.31940366      -0.36051792       0.00000000
Si       0.48228174       3.64221105      -0.39458861       0.00000000
Si       2.17399824      -2.97808471      -0.99991593       0.00000000
