10
Lattice="16.28999089631971 0.0 0.0 0.0 16.28999089631971 0.0 0.0 0.0 34.69518985606464" Properties=species:S:1:pos:R:3:initial_magmoms:R:1 pbc="T T T"
Si      -1.06640856      -1.32467022       1.59242479       0.00000000
Si       0.16187373      -1.96089246      -1.36032976       0.00000000
Si      -1.72892286       0.96047469      -1.45948867       0.00000000
Si       1.55906703       1.39041666       1.47939821       0.00000000
Si      -2.04294519      -2.91274974       0.11910865       0.00000000
Si      -2.25583920       0.24198795       2.87724737       0.00000000
Si      -2.40722217       2.88629478      -0.07907038       0.00000000
Si       0.48267270      -2.47495599       2.88968561       0.00000000
Si      -0.78825681       1.70033391      -3.51198786       0.00000000
Si       2.50774776       3.16472346       0.21067213       0.00000000
