10
Lattice="16.28999089631971 0.0 0.0 0.0 16.28999089631971 0.0 0.0 0.0 34.69518985606464" Properties=species:S:1:pos:R:3:initial_magmoms:R:1 pbc="T T T"
Si      -0.94868073      -1.77430680       1.26872608       0.00000000
Si       1.78877232       0.97345782       1.32162587       0.00000000
Si      -1.65942972       1.97322399      -0.29265691       0.00000000
Si      -2.05721523      -0.20401596       2.66036134       0.00000000
Si      -1.15183332      -0.42919263      -3.18026978       0.00000000
Si      -1.34715042       2.01569202      -2.75678006       0.00000000
Si       0.66588633       2.51107092       2.68026945       0.00000000
Si      -3.41242920       1.11394278       1.15096708       0.00000000
Si       2.85931854       2.65330430       0.00551758       0.00000000
Si      -0.68043330       3.70291641       1.14040585       0.00000000
