10
Lattice="16.28999089631971 0.0 0.0 0.0 16.28999089631971 0.0 0.0 0.0 34.69518985606464" Properties=species:S:1:pos:R:3:initial_magmoms:R:1 pbc="T T T"
Si       2.33839692       0.28567773       0.19509116       0.00000000
Si      -0.35846145      -2.33181576      -0.32145111       0.00000000
Si       0.14486697       1.56776589      -1.81650238       0.00000000
Si      -1.05003711       0.66077127       2.14208222       0.00000000
Si       2.16624420       2.41005663      -0.83032575       0.00000000
Si      -2.64642453      -2.18769813       0.15206910       0.00000000
Si      -3.19420836      -0.37442565       1.59969201       0.00000000
Si       0.97440264      -3.21067755       1.57498902       0.00000000
Si       3.33878211      -1.17441126      -1.36522179       0.00000000
Si       1.12484079       0.72938475      -3.76821198       0.00000000
