10
Lattice="16.28999089631971 0.0 0.0 0.0 16.28999089631971 0.0 0.0 0.0 34.69518985606464" Properties=species:S:1:pos:R:3:initial_magmoms:R:1 pbc="T T T"
Si      -1.33014366       1.03395141      -1.77295989       0.00000000
Si       2.17930878       1.12314893       0.09673024       0.00000000
Si      -0.31227930      -0.04246803       2.46412315       0.00000000
Si       0.19531710      -2.44488465      -0.42348972       0.00000000
Si       1.34715042      -2.01569202       2.75678006       0.00000000
Si      -3.45022200       1.72909132      -0.94423012       0.00000000
Si       3.42476073       1.11058934      -1.90598132       0.00000000
Si      -1.94885415      -3.48008157      -0.96587993       0.00000000
Si      -0.49915818       3.18147677      -2.55648180       0.00000000
Si      -1.97993547      -0.31242591      -3.64709101       0.00000000
