10
Lattice="16.28999089631971 0.0 0.0 0.0 16.28999089631971 0.0 0.0 0.0 34.69518985606464" Properties=species:S:1:pos:R:3:initial_magmoms:R:1 pbc="T T T"
Si      -1.35583299      -1.35567009       1.35627042       0.00000000
Si       1.35860229      -1.35239580      -1.35765823       0.00000000
Si      -1.35120663       1.35791811      -1.36268904       0.00000000
Si       1.35938421       1.35943308       1.35588878       0.00000000
Si       0.00079821      -2.71258064       2.71354701       0.00000000
Si      -2.71401174       0.00260640       2.71389396       0.00000000
Si       2.71508688      -2.71285414       0.00024287       0.00000000
Si       2.71039536      -0.00234576      -2.71791861       0.00000000
Si      -0.01050705      -2.71626695      -2.71352966       0.00000000
Si       2.71402803       2.71608057      -0.00062451       0.00000000
