10
Lattice="16.28999089631971 0.0 0.0 0.0 16.28999089631971 0.0 0.0 0.0 34.69518985606464" Properties=species:S:1:pos:R:3:initial_magmoms:R:1 pbc="T T T"
Si       1.35759231      -1.35827649       1.35842153       0.00000000
Si      -1.35907470       1.35697329       1.35932360       0.00000000
Si      -1.36270737      -1.36145304      -1.35797049       0.00000000
Si       1.37054286       1.35886293      -1.37967928       0.00000000
Si       2.47928913      -0.16413804      -2.89117260       0.00000000
Si      -2.71450044      -2.71150308       0.00228988       0.00000000
Si       2.71713942      -2.70987082       0.00065921       0.00000000
Si      -2.71208952       2.71604799      -0.00058982       0.00000000
Si      -2.71371852       0.00032580       2.71583689       0.00000000
Si       0.00013032      -2.71340412       2.71628793       0.00000000
