10
Lattice="16.28999089631971 0.0 0.0 0.0 16.28999089631971 0.0 0.0 0.0 34.69518985606464" Properties=species:S:1:pos:R:3:initial_magmoms:R:1 pbc="T T T"
Si       1.77064155      -1.44674748       0.52143430       0.00000000
Si      -0.27598518      -0.79203609      -2.20120286       0.00000000
Si      -2.02473297      -1.12242987       0.83570351       0.00000000
Si       0.75118077       2.34725868      -0.04819165       0.00000000
Si      -1.36259334       3.35090187      -0.27884540       0.00000000
Si      -0.57681261      -3.12176673      -1.95257699       0.00000000
Si       3.47278365      -0.11880297       1.43284275       0.00000000
Si      -2.39272407       0.15180651      -3.00099682       0.00000000
Si       1.97578152      -0.52797519      -3.26558248       0.00000000
Si       2.90553327      -2.07521568      -1.48797344       0.00000000
