10
Lattice="16.28999089631971 0.0 0.0 0.0 16.28999089631971 0.0 0.0 0.0 34.69518985606464" Properties=species:S:1:pos:R:3:initial_magmoms:R:1 pbc="T T T"
Si       1.33158044       1.36536264      -1.34695823       0.00000000
Si       1.35226874      -1.35910728       1.36116245       0.00000000
Si      -1.36100087       1.35612621       1.36067672       0.00000000
Si      -1.38379056      -1.37559276      -1.38751693       0.00000000
Si      -0.17874040       2.49320079      -2.80637751       0.00000000
Si       2.56875707       0.05041755      -2.79564975       0.00000000
Si       2.71149005      -2.71350349      -0.00235927       0.00000000
Si       2.71137602       2.71440270       0.00340013       0.00000000
Si      -2.71691529      -2.71151611       0.00235927       0.00000000
Si       2.71105022      -0.00058644       2.71809208       0.00000000
