10
Lattice="16.28999089631971 0.0 0.0 0.0 16.28999089631971 0.0 0.0 0.0 34.69518985606464" Properties=species:S:1:pos:R:3:initial_magmoms:R:1 pbc="T T T"
Si       1.35037584      -1.36045935      -1.36060733       0.00000000
Si       1.34115570       1.33669224       1.39780059       0.00000000
Si      -1.36754550       1.35193968      -1.36206452       0.00000000
Si      -1.36664955      -1.38316761       1.35647860       0.00000000
Si       2.71446786       2.71077003       0.00031226       0.00000000
Si       2.71093293      -0.00143352      -2.71965337       0.00000000
Si      -0.00467523       2.71272483      -2.71941050       0.00000000
Si       2.71454931      -2.71977840      -0.00017348       0.00000000
Si      -2.71891503       2.71627605      -0.00398995       0.00000000
Si      -0.00462636      -2.71782360      -2.71982684       0.00000000
