10
Lattice="16.28999089631971 0.0 0.0 0.0 16.28999089631971 0.0 0.0 0.0 34.69518985606464" Properties=species:S:1:pos:R:3:initial_magmoms:R:1 pbc="T T T"
Si       1.65587850       1.36998900       1.12866985       0.00000000
Si       0.92789469      -1.79752005      -1.34502918       0.00000000
Si      -0.57078531       1.53575604      -1.87364538       0.00000000
Si      -1.39709556      -0.75957012       2.10721353       0.00000000
Si      -0.10823076      -3.61010835      -0.27235739       0.00000000
Si       0.09273897       3.09752721       1.91725726       0.00000000
Si      -2.52960894       2.47257765      -0.91782707       0.00000000
Si      -1.59642000      -3.11645619       1.52121145       0.00000000
Si       2.93505075       0.03714120       2.70098734       0.00000000
Si       3.29149224       2.25106623      -0.39986229       0.00000000
