10
Lattice="16.28999089631971 0.0 0.0 0.0 16.28999089631971 0.0 0.0 0.0 34.69518985606464" Properties=species:S:1:pos:R:3:initial_magmoms:R:1 pbc="T T T"
Si      -2.28423267       0.58047786       0.16577371       0.00000000
Si      -0.19932444      -2.35688607      -0.58600208       0.00000000
Si       0.83080629       0.84220929       2.13614934       0.00000000
Si       1.39709556       0.75957012      -2.10721353       0.00000000
Si      -2.94664923      -1.45249785       1.24864589       0.00000000
Si      -2.55399507       1.48193388      -2.09395996       0.00000000
Si       2.94458040      -0.16143390       2.36680309       0.00000000
Si       1.91741445      -3.30072867       0.21379188       0.00000000
Si       3.05297406       2.12955912      -0.97854368       0.00000000
Si       1.28886480      -2.85053823      -2.37957093       0.00000000
