10
Lattice="16.28999089631971 0.0 0.0 0.0 16.28999089631971 0.0 0.0 0.0 34.69518985606464" Properties=species:S:1:pos:R:3:initial_magmoms:R:1 pbc="T T T"
Si       1.63561374       0.88107723      -1.52853214       0.00000000
Si       1.27917225      -1.33284780       1.57231749       0.00000000
Si      -1.65587850      -1.36998900      -1.12866985       0.00000000
Si      -1.56313953       1.72753821       0.78858741       0.00000000
Si      -2.22666381       0.16576704      -3.00231524       0.00000000
Si      -1.94768127       1.11860172       3.03725331       0.00000000
Si      -3.05297406      -2.12955912       0.97854368       0.00000000
Si       2.99090916       0.20064393       2.43879565       0.00000000
Si       3.72759183      -0.05566293      -1.16013841       0.00000000
Si       1.83454722       3.20440590      -1.41660539       0.00000000
