10
Lattice="16.28999089631971 0.0 0.0 0.0 16.28999089631971 0.0 0.0 0.0 34.69518985606464" Properties=species:S:1:pos:R:3:initial_magmoms:R:1 pbc="T T T"
Si       0.74010357      -2.07431973      -0.80191037       0.00000000
Si       1.74073311       0.76333311       1.42153211       0.00000000
Si      -1.92862197      -0.25324434       1.36473606       0.00000000
Si      -0.23192073       1.38008880      -1.97106953       0.00000000
Si       2.86163172      -1.14790743      -1.50743745       0.00000000
Si      -0.55320840       3.51028323      -1.06705116       0.00000000
Si       1.15965252       0.00825903       3.57083094       0.00000000
Si      -1.17525834      -0.37440936       3.59945448       0.00000000
Si       1.42835607       3.11653764       1.70998808       0.00000000
Si       3.78022482      -0.29629881       0.60914379       0.00000000
