10
Lattice="16.28999089631971 0.0 0.0 0.0 16.28999089631971 0.0 0.0 0.0 34.69518985606464" Properties=species:S:1:pos:R:3:initial_magmoms:R:1 pbc="T T T"
Si      -1.00038519       1.46008899       1.56031295       0.00000000
Si      -0.75336363       0.12116502      -2.23471843       0.00000000
Si       2.33491086       0.38266839      -0.02862355       0.00000000
Si       0.30351528      -2.34981621       0.30517906       0.00000000
Si       2.63963160      -1.95238908       0.18225393       0.00000000
Si      -1.92010230      -1.89293058      -2.63718285       0.00000000
Si      -2.21394132       1.90379601      -2.40299019       0.00000000
Si      -3.33878211       1.17441126       1.36522179       0.00000000
Si       1.17525834       0.37440936      -3.59945448       0.00000000
Si      -1.17253791       3.58446789       0.53489604       0.00000000
