10
Lattice="16.28999089631971 0.0 0.0 0.0 16.28999089631971 0.0 0.0 0.0 34.69518985606464" Properties=species:S:1:pos:R:3:initial_magmoms:R:1 pbc="T T T"
Si       0.65419011       2.12428116      -0.89097297       0.00000000
Si       0.84626550      -0.21152565       2.25572642       0.00000000
Si       1.91119167      -1.66741182       0.16025717       0.00000000
Si      -1.91923893      -1.23088869      -1.56232527       0.00000000
Si      -0.10490760      -2.57238648      -2.27413219       0.00000000
Si       3.17599614       1.62339624      -0.36051792       0.00000000
Si      -0.89186121      -1.35236322       3.35197845       0.00000000
Si      -0.55524465       2.26546659      -2.94222313       0.00000000
Si       3.87509778      -0.64439982      -0.48677379       0.00000000
Si       2.62845666      -2.02349493       2.35108967       0.00000000
