10
Lattice="16.28999089631971 0.0 0.0 0.0 16.28999089631971 0.0 0.0 0.0 34.69518985606464" Properties=species:S:1:pos:R:3:initial_magmoms:R:1 pbc="T T T"
Si      -1.35395964       1.35998694      -1.35665207       0.00000000
Si      -1.35602847      -1.35798327       1.35682555       0.00000000
Si       1.35907470       1.35746199       1.35682555       0.00000000
Si       1.36260963      -1.35812988      -1.36202983       0.00000000
Si      -0.01019754       2.71088406      -2.71304393       0.00000000
Si      -2.71518462       2.71148603      -0.00076329       0.00000000
Si      -2.71336014      -0.00060273       2.71365110       0.00000000
Si       0.00110772       2.71457037       2.71403274       0.00000000
Si       0.00053757      -2.71542897       2.71330414       0.00000000
Si       2.71539639       2.71429686       0.00072860       0.00000000
