10
Lattice="16.28999089631971 0.0 0.0 0.0 16.28999089631971 0.0 0.0 0.0 34.69518985606464" Properties=species:S:1:pos:R:3:initial_magmoms:R:1 pbc="T T T"
Si       1.40136354       0.34896438       1.80168752       0.00000000
Si      -1.28863674       1.90067715      -0.50540511       0.00000000
Si      -1.25103942      -1.92270870       0.52202412       0.00000000
Si       1.58495184       0.05818788      -1.74149133       0.00000000
Si      -1.48001166       1.07997847      -2.68169681       0.00000000
Si       1.30603446       2.70624860       1.62529708       0.00000000
Si      -0.20963601      -0.24203682       3.45991035       0.00000000
Si      -2.23101324      -1.08432756       2.47373372       0.00000000
Si       0.29108601       3.69135377      -0.35829743       0.00000000
Si       3.56651631      -0.33555771       1.03554791       0.00000000
