10
Lattice="16.28999089631971 0.0 0.0 0.0 16.28999089631971 0.0 0.0 0.0 34.69518985606464" Properties=species:S:1:pos:R:3:initial_magmoms:R:1 pbc="T T T"
Si       1.00038519      -1.46008899      -1.56031295       0.00000000
Si      -2.33839692      -0.28567773      -0.19509116       0.00000000
Si      -0.17215272       2.12437890      -1.02541691       0.00000000
Si       1.20943476      -0.14118543       2.05125016       0.00000000
Si      -2.19352995       1.28208816      -2.01159354       0.00000000
Si       0.55524465      -2.26546659       2.94222313       0.00000000
Si      -2.69685837      -2.61749349      -0.51654228       0.00000000
Si       3.33529605      -1.07742060      -1.58893650       0.00000000
Si      -3.38843403       0.37509354       1.94699106       0.00000000
Si      -0.15899040       3.93056753       0.46449946       0.00000000
