10
Lattice="16.28999089631971 0.0 0.0 0.0 16.28999089631971 0.0 0.0 0.0 34.69518985606464" Properties=species:S:1:pos:R:3:initial_magmoms:R:1 pbc="T T T"
Si       1.35567009       1.35513693       1.35727659       0.00000000
Si       1.35762489      -1.35715852      -1.35758884       0.00000000
Si      -1.35814617       1.35862462      -1.35731128       0.00000000
Si      -1.36032903      -1.35930880       1.35724189       0.00000000
Si       2.71214269      -0.00070730      -2.71521238       0.00000000
Si       2.71413030      -2.71449019      -0.00065921       0.00000000
Si      -0.00068418       2.71375225      -2.71517769       0.00000000
Si      -2.71472850      -2.71475083       0.00041634       0.00000000
Si      -2.71629234       0.00006732      -2.71340823       0.00000000
Si       2.71427168       2.71564189       0.00010409       0.00000000
