10
Lattice="16.28999089631971 0.0 0.0 0.0 16.28999089631971 0.0 0.0 0.0 34.69518985606464" Properties=species:S:1:pos:R:3:initial_magmoms:R:1 pbc="T T T"
Si      -1.35431802      -1.34602641      -1.36636673       0.00000000
Si       1.35591219       1.36847403      -1.35973995       0.00000000
Si       1.23241995      -1.53557685       1.31546886       0.00000000
Si      -1.57651362       1.15139349       1.36959338       0.00000000
Si      -0.37286181      -2.61647862       2.70889785       0.00000000
Si       0.00120546      -2.71024549      -2.72478826       0.00000000
Si      -2.71448415       0.00706986      -2.72725162       0.00000000
Si       2.71920729       0.00700470      -2.72277594       0.00000000
Si      -2.73634533      -2.70672685      -0.01887419       0.00000000
Si       0.00122175       2.72078838      -2.72451070       0.00000000
