10
Lattice="16.28999089631971 0.0 0.0 0.0 16.28999089631971 0.0 0.0 0.0 34.69518985606464" Properties=species:S:1:pos:R:3:initial_magmoms:R:1 pbc="T T T"
Si       1.62133297       1.30090474       1.02673533       0.00000000
Si      -0.52602039      -1.87910593       1.35595817       0.00000000
Si       1.51183810      -0.82570426      -1.67199683       0.00000000
Si      -1.80543699       1.51119235      -0.73893857       0.00000000
Si      -1.72359603       0.40901258      -2.73072114       0.00000000
Si       0.20478159       2.25005788       2.59471592       0.00000000
Si       0.50516919       0.37365839      -3.45484485       0.00000000
Si       2.80178945      -0.41704192       2.14291490       0.00000000
Si      -2.46951513      -1.79301328      -2.00933835       0.00000000
Si       1.68272020      -2.56046776       2.11984259       0.00000000
