10
Lattice="16.28999089631971 0.0 0.0 0.0 16.28999089631971 0.0 0.0 0.0 34.69518985606464" Properties=species:S:1:pos:R:3:initial_magmoms:R:1 pbc="T T T"
Si       1.35470628       1.35632169      -1.35620103       0.00000000
Si       1.35682570      -1.35757602       1.35790110       0.00000000
Si      -1.35672894       1.35772263       1.35797049       0.00000000
Si      -1.35769005      -1.35944937      -1.35696433       0.00000000
Si      -0.00071676       2.71166598       2.71254085       0.00000000
Si       0.00092853       2.71523349      -2.71236737       0.00000000
Si       2.71467053       2.71432125       0.00031226       0.00000000
Si      -2.71508688       2.71485882       0.00020817       0.00000000
Si       2.71534005      -2.71567332       0.00027756       0.00000000
Si       2.71346507      -0.00254124       2.71757165       0.00000000
