10
Lattice="16.28999089631971 0.0 0.0 0.0 16.28999089631971 0.0 0.0 0.0 34.69518985606464" Properties=species:S:1:pos:R:3:initial_magmoms:R:1 pbc="T T T"
Si      -1.39035150      -1.47408210      -1.14646849       0.00000000
Si       0.45569646      -0.42699348       2.31191527       0.00000000
Si       1.43785314       1.59804900      -1.13810695       0.00000000
Si      -1.63628163       0.50974668       1.94352154       0.00000000
Si       0.08920404      -2.68190415       2.03577610       0.00000000
Si       0.13725954      -2.41129467      -2.62444971       0.00000000
Si      -2.60811045       0.29141181      -2.59003207       0.00000000
Si      -1.66747698      -3.27052701       0.46567910       0.00000000
Si      -1.43734815       2.83307535       2.05544828       0.00000000
Si       2.82619675       0.29589156      -2.61636573       0.00000000
