10
Lattice="16.28999089631971 0.0 0.0 0.0 16.28999089631971 0.0 0.0 0.0 34.69518985606464" Properties=species:S:1:pos:R:3:initial_magmoms:R:1 pbc="T T T"
Si      -1.96390611      -1.02301200       0.64703096       0.00000000
Si      -0.69910164       2.26779606       0.12625587       0.00000000
Si       0.49984236      -1.20570435      -2.01700599       0.00000000
Si       1.94968494       2.26901781       0.50564798       0.00000000
Si       2.23412856       0.51160374       2.31659912       0.00000000
Si      -1.24664112      -1.37909511       2.83786345       0.00000000
Si       2.02812129       2.04232617      -1.95514443       0.00000000
Si       2.70159291      -0.33412419      -2.32742403       0.00000000
Si      -0.19409535       2.89641087      -2.11508935       0.00000000
Si      -2.02090482      -2.89408140      -0.71621320       0.00000000
