10
Lattice="16.28999089631971 0.0 0.0 0.0 16.28999089631971 0.0 0.0 0.0 34.69518985606464" Properties=species:S:1:pos:R:3:initial_magmoms:R:1 pbc="T T T"
Si      -1.08137907       1.45526130      -1.42493224       0.00000000
Si       1.28210445       1.54550953       1.30283980       0.00000000
Si       1.64361213      -1.26138357      -1.38659404       0.00000000
Si      -1.58105853      -1.07158878       1.61835804       0.00000000
Si       2.09000700      -0.28608498       2.51522919       0.00000000
Si       0.10236636      -1.45251414       3.27498489       0.00000000
Si      -2.41344495       0.10157620      -2.77197374       0.00000000
Si      -2.70997182       2.52989306      -0.09312194       0.00000000
Si      -2.55880062      -2.79570609       0.21958598       0.00000000
Si       0.30491622      -2.62009989      -2.76798379       0.00000000
