10
Lattice="16.28999089631971 0.0 0.0 0.0 16.28999089631971 0.0 0.0 0.0 34.69518985606464" Properties=species:S:1:pos:R:3:initial_magmoms:R:1 pbc="T T T"
Si      -0.89122590      -1.42055316       1.68727803       0.00000000
Si       1.61955180       1.12417290       1.55806960       0.00000000
Si       0.31213269      -1.37101527      -2.10686658       0.00000000
Si      -1.69139070       1.31079114      -1.38343677       0.00000000
Si      -2.20967334      -0.87013035      -2.63732164       0.00000000
Si       2.96091927      -1.36979352      -1.72747447       0.00000000
Si      -2.01759795      -3.20593716       0.50937775       0.00000000
Si      -2.27491479      -0.12693168       3.10477856       0.00000000
Si       3.05545014       2.40083649       0.16001431       0.00000000
Si      -2.79639027       2.72864555       0.44420662       0.00000000
