10
Lattice="16.28999089631971 0.0 0.0 0.0 16.28999089631971 0.0 0.0 0.0 34.69518985606464" Properties=species:S:1:pos:R:3:initial_magmoms:R:1 pbc="T T T"
Si      -1.35570593      -1.35661002       1.35665207       0.00000000
Si      -1.35226874       1.35910728      -1.36116245       0.00000000
Si       1.35878148       1.35852084       1.35692963       0.00000000
Si       1.35922131      -1.35439621      -1.36352172       0.00000000
Si      -2.71377528       0.00107514       2.71424091       0.00000000
Si       0.00141723      -2.71408292       2.71437970       0.00000000
Si      -2.71326961       2.71523349      -0.00048573       0.00000000
Si       2.71511946       2.71448415      -0.00117964       0.00000000
Si       0.00329058       2.71595025       2.71403274       0.00000000
Si       2.71655298       0.00096111       2.71437970       0.00000000
