10
Lattice="16.28999089631971 0.0 0.0 0.0 16.28999089631971 0.0 0.0 0.0 34.69518985606464" Properties=species:S:1:pos:R:3:initial_magmoms:R:1 pbc="T T T"
Si      -0.73876779       2.31557463       0.08330320       0.00000000
Si       0.34191081      -0.15051960      -2.45222269       0.00000000
Si       2.39961474      -0.72189135      -0.18121308       0.00000000
Si      -1.46802222      -0.93304233       1.83405815       0.00000000
Si       2.66937714      -1.62334737       2.07852060       0.00000000
Si      -2.12483339       2.48964957       2.06766099       0.00000000
Si       2.47601484      -1.67259204      -2.49257322       0.00000000
Si      -3.43080790       0.42919263       1.83124784       0.00000000
Si       1.24737417       3.70792980      -0.33869463       0.00000000
Si      -0.57715470      -0.23429907       3.91573601       0.00000000
