10
Lattice="16.28999089631971 0.0 0.0 0.0 16.28999089631971 0.0 0.0 0.0 34.69518985606464" Properties=species:S:1:pos:R:3:initial_magmoms:R:1 pbc="T T T"
Si      -0.21958920      -1.76928948       1.55372086       0.00000000
Si      -0.89086752      -0.69874326      -2.08167786       0.00000000
Si      -0.67015431       2.25968364       0.34636227       0.00000000
Si       2.39596578       0.17475912      -0.27280843       0.00000000
Si       0.35528490      -3.45159036       0.00416343       0.00000000
Si       1.27993788      -1.02229524       3.16663175       0.00000000
Si      -2.85365320       0.66349170      -2.08448817       0.00000000
Si      -1.54767869       2.72394864      -1.84807502       0.00000000
Si       1.37152026       3.26811609       1.01813092       0.00000000
Si      -1.14114708      -3.04965090      -1.81452475       0.00000000
