10
Lattice="16.28999089631971 0.0 0.0 0.0 16.28999089631971 0.0 0.0 0.0 34.69518985606464" Properties=species:S:1:pos:R:3:initial_magmoms:R:1 pbc="T T T"
Si       0.82569302      -0.95382837      -2.04257636       0.00000000
Si      -1.99006836      -1.20176217       0.71198039       0.00000000
Si       1.70947928       0.05835078       1.76022675       0.00000000
Si      -0.74821650       2.18344644      -0.90110397       0.00000000
Si      -1.66680960       1.33183782      -3.01768521       0.00000000
Si      -0.94509744      -0.81800235      -3.59331343       0.00000000
Si       0.42785050       0.32143428       3.77754499       0.00000000
Si      -3.06406806       0.15294681       2.27146065       0.00000000
Si      -3.43548006      -1.64398680      -1.08061699       0.00000000
Si       1.35418949      -3.29035194      -1.95344437       0.00000000
