10
Lattice="16.28999089631971 0.0 0.0 0.0 16.28999089631971 0.0 0.0 0.0 34.69518985606464" Properties=species:S:1:pos:R:3:initial_magmoms:R:1 pbc="T T T"
Si       1.35083196      -1.36089755      -1.36140532       0.00000000
Si      -1.35926203       1.35721764      -1.35908074       0.00000000
Si       1.34760654       1.36853919       1.38163262       0.00000000
Si      -1.35081241      -1.39066427       1.35960116       0.00000000
Si       2.71037907      -2.70947942      -0.00232458       0.00000000
Si       2.70982521       2.71277370       0.00253275       0.00000000
Si       2.71166598       0.00035838      -2.71812678       0.00000000
Si      -2.71580024      -2.71411027      -0.00260214       0.00000000
Si      -0.00346977      -2.71468565      -2.71812678       0.00000000
Si      -0.00159642       2.71534752      -2.71847373       0.00000000
