10
Lattice="16.290000149 0.0 0.0 0.0 16.290000149 0.0 0.0 0.0 29.1751946751" Properties=species:S:1:pos:R:3:initial_magmoms:R:1 pbc="T T T"
Si      -1.36409203       1.37556019       1.25990161       0.00000000
Si      -1.41982012      -1.31279482      -1.31124995       0.00000000
Si       1.33794658       1.44516736      -1.25806357       0.00000000
Si       1.32309010      -1.29565774       1.44455141       0.00000000
Si      -2.73743679       0.05302395       2.54865748       0.00000000
Si       2.68299560       0.08022825      -2.60753302       0.00000000
Si      -0.04070871      -2.65895156      -2.63419915       0.00000000
Si       2.68439654      -2.65777868       0.11471687       0.00000000
Si      -0.04896774       2.78938560      -2.60283582       0.00000000
Si      -2.78146866       0.08231337      -2.61666486       0.00000000
