10
Lattice="16.290000149 0.0 0.0 0.0 16.290000149 0.0 0.0 0.0 29.1751946751" Properties=species:S:1:pos:R:3:initial_magmoms:R:1 pbc="T T T"
Si       1.12902733      -0.06139701      -1.00493958       0.00000000
H        0.67966768       0.92680327       1.61618908       0.00000000
H       -0.92172079       1.77218912       0.44515512       0.00000000
Si      -2.27805878       1.19433394       0.17140427       0.00000000
Si      -2.72619668      -1.01486701       0.78446263       0.00000000
Si       0.14590953       0.66880225       3.00279856       0.00000000
Si       1.35786925      -2.19699974      -1.91231731       0.00000000
Si       3.18436923       0.63794899      -0.10050855       0.00000000
Si       0.89976187       1.45117837      -2.84005933       0.00000000
Si      -1.65214811      -0.92708020       2.88452232       0.00000000
