10
Lattice="16.290000149 0.0 0.0 0.0 16.290000149 0.0 0.0 0.0 29.1751946751" Properties=species:S:1:pos:R:3:initial_magmoms:R:1 pbc="T T T"
Si      -1.33794658       1.15427683       1.55682048       0.00000000
Si      -1.30797298      -1.44655201      -1.37093365       0.00000000
Si       1.42732981      -1.36697536       1.33470097       0.00000000
Si       0.83404801       1.99780562      -1.09085878       0.00000000
H        1.91207135       0.28308762      -1.88036172       0.00000000
Si      -0.91204453       3.54019170      -0.63954069       0.00000000
Si      -2.74439262       2.51818967       0.30280643       0.00000000
Si      -2.70686045      -0.02140506      -2.59489141       0.00000000
Si       0.08390979       2.61415406       2.78203862       0.00000000
Si      -2.63466317      -2.82892143       0.00551119       0.00000000
