10
Lattice="16.290000149 0.0 0.0 0.0 16.290000149 0.0 0.0 0.0 29.1751946751" Properties=species:S:1:pos:R:3:initial_magmoms:R:1 pbc="T T T"
Si       0.43851051      -0.24801525       2.28347801       0.00000000
Si      -1.71864389       1.63046611       0.10365947       0.00000000
Si      -0.04929354      -2.29423475      -0.66641980       0.00000000
Si       1.87018976       0.89671564      -1.27696910       0.00000000
H       -0.92105290       0.16260678      -2.54162626       0.00000000
Si       2.15487380      -2.67529043       0.13753187       0.00000000
Si      -0.32356827       3.36885348      -0.81104124       0.00000000
Si       2.07159932      -1.98338897       2.36743576       0.00000000
Si       3.46452465       1.71005906       0.28396217       0.00000000
Si      -3.77621751       0.62159383      -0.61979784       0.00000000
