10
Lattice="16.290000149 0.0 0.0 0.0 16.290000149 0.0 0.0 0.0 29.1751946751" Properties=species:S:1:pos:R:3:initial_magmoms:R:1 pbc="T T T"
Si      -1.30489417       1.38070783      -1.37584383       0.00000000
Si       1.37936065       1.36342414       1.33094321       0.00000000
Si       1.39693104      -1.33342774      -1.35148254       0.00000000
Si      -1.38121282      -1.33883276       1.38331268       0.00000000
Si       0.05839965      -2.66379672       2.65558457       0.00000000
Si      -2.67906971      -0.00254124      -2.68560585       0.00000000
Si      -2.62679510       2.75442726      -0.00274247       0.00000000
Si       0.02723688      -2.70190829      -2.68697708       0.00000000
Si      -2.61418664       0.09524763       2.79445850       0.00000000
Si       2.71318097       0.01663209       2.70955868       0.00000000
