10
Lattice="16.290000149 0.0 0.0 0.0 16.290000149 0.0 0.0 0.0 29.1751946751" Properties=species:S:1:pos:R:3:initial_magmoms:R:1 pbc="T T T"
H       -0.60075892      -0.09169641      -1.39991337       0.00000000
Si      -1.71628184       0.44202915       1.52449145       0.00000000
Si       0.47747619      -2.03010869       1.05856359       0.00000000
H        1.51628950      -0.84442474      -1.70724487       0.00000000
Si       1.89931628       1.49978773       0.31809715       0.00000000
Si       0.79431670      -0.93182059      -3.02861861       0.00000000
Si      -2.56072286       2.28734408       0.40028367       0.00000000
Si      -0.33770799       1.47044944       3.15669771       0.00000000
Si       2.07181109      -1.21676527       2.61949485       0.00000000
Si       0.92694988       2.95391460       1.82972233       0.00000000
