10
Lattice="16.290000149 0.0 0.0 0.0 16.290000149 0.0 0.0 0.0 29.1751946751" Properties=species:S:1:pos:R:3:initial_magmoms:R:1 pbc="T T T"
Si      -1.30267873      -1.35394336       1.43463768       0.00000000
Si       1.36028506      -1.45836226      -1.28719792       0.00000000
Si       1.39058772       1.28697517       1.43460851       0.00000000
Si      -1.30074022       1.53002197      -1.31810904       0.00000000
Si       2.70604595       0.00345348      -2.52077387       0.00000000
Si      -2.53260632       2.73100728       0.27796375       0.00000000
Si      -2.64953594      -2.68684004       0.04553373       0.00000000
Si       2.80277598       2.67750587       0.17829837       0.00000000
Si      -2.64686438      -0.05075964       2.85827048       0.00000000
Si       0.10925703       2.63220338       2.89100505       0.00000000
