10
Lattice="16.290000149 0.0 0.0 0.0 16.290000149 0.0 0.0 0.0 29.1751946751" Properties=species:S:1:pos:R:3:initial_magmoms:R:1 pbc="T T T"
Si       1.37758015       1.34032492       1.33698247       0.00000000
Si       1.37523439      -1.36764325      -1.31553870       0.00000000
Si      -1.35516511      -1.35583300       1.35539202       0.00000000
Si      -1.35176050       1.37209042      -1.34614348       0.00000000
Si      -0.03503979       2.67121793       2.63597884       0.00000000
Si      -0.00255753      -2.70410744      -2.66118621       0.00000000
Si       2.73106740      -0.01498680      -2.67647401       0.00000000
Si      -2.71785620       0.01720224      -2.69394995       0.00000000
Si       2.72233595       2.69255783      -0.02649108       0.00000000
Si       0.01058850      -2.67910229       2.73596223       0.00000000
