10
Lattice="16.290000149 0.0 0.0 0.0 16.290000149 0.0 0.0 0.0 29.1751946751" Properties=species:S:1:pos:R:3:initial_magmoms:R:1 pbc="T T T"
Si      -1.82925299      -1.29560887       0.63403533       0.00000000
Si       1.81802918      -1.46062657      -0.16571511       0.00000000
Si      -1.02719854       0.82617994      -1.95561330       0.00000000
Si       0.65375029       1.77272669       1.58555513       0.00000000
H       -0.00345348      -1.13961583       3.11949934       0.00000000
Si      -2.55638972       2.09122877      -0.74423004       0.00000000
Si       3.42373449       0.24079878      -0.09721175       0.00000000
Si      -3.47556927       0.36372312       0.53705698       0.00000000
Si      -1.35979147      -1.71747101       2.84574849       0.00000000
Si       2.88567579       1.27094581       1.91581833       0.00000000
