10
Lattice="16.290000149 0.0 0.0 0.0 16.290000149 0.0 0.0 0.0 29.1751946751" Properties=species:S:1:pos:R:3:initial_magmoms:R:1 pbc="T T T"
Si       1.36016614       1.36376623       1.33006795       0.00000000
Si       1.36526491      -1.34566804      -1.35104492       0.00000000
Si      -1.32950836       1.36806679      -1.37467682       0.00000000
Si      -1.35580042      -1.37502262       1.35909727       0.00000000
Si       2.69425199      -0.01058850       2.68706460       0.00000000
Si      -0.00356751      -2.69467553      -2.68805656       0.00000000
Si      -2.70808220       0.00446346      -2.67979998       0.00000000
Si      -2.71513577       2.68299560      -0.01697996       0.00000000
Si       0.00910611       2.70871751       2.69383325       0.00000000
Si       2.69115689      -2.72712522       0.00924854       0.00000000
