10
Lattice="16.290000149 0.0 0.0 0.0 16.290000149 0.0 0.0 0.0 29.1751946751" Properties=species:S:1:pos:R:3:initial_magmoms:R:1 pbc="T T T"
Si      -2.06832503       0.72233607      -0.84716013       0.00000000
Si      -0.78183856      -1.49933161       1.70844105       0.00000000
Si       1.04813119      -0.67313539      -2.06945491       0.00000000
Si       0.92295883       2.08060769       0.81425051       0.00000000
H       -1.38741931       2.28060002       1.73175203       0.00000000
Si      -1.31522203       1.30570541      -3.00309031       0.00000000
Si      -2.66869298       2.24135741       0.91146226       0.00000000
H        0.39092742      -3.58547790      -0.53551070       0.00000000
Si      -2.32319837      -2.81186580       0.51879331       0.00000000
Si      -3.35319227      -1.26565156      -0.96196452       0.00000000
