10
Lattice="16.290000149 0.0 0.0 0.0 16.290000149 0.0 0.0 0.0 29.1751946751" Properties=species:S:1:pos:R:3:initial_magmoms:R:1 pbc="T T T"
Si      -1.36016614      -1.36376623      -1.33006795       0.00000000
Si      -1.35106003       1.34495128       1.36376530       0.00000000
Si       1.33408585      -1.37435473       1.35699665       0.00000000
Si       1.33758820       1.35964486      -1.37987001       0.00000000
Si      -2.70492194       2.68061726      -0.02001418       0.00000000
Si       2.67655780      -0.01259217       2.71040476       0.00000000
Si       0.00509877      -2.70943427      -2.68111287       0.00000000
Si      -2.68967450       0.00430056      -2.70474477       0.00000000
Si       2.69158858       2.71230131      -0.02094779       0.00000000
Si       0.02018331       2.68179014       2.72890183       0.00000000
