10
Lattice="16.290000149 0.0 0.0 0.0 16.290000149 0.0 0.0 0.0 29.1751946751" Properties=species:S:1:pos:R:3:initial_magmoms:R:1 pbc="T T T"
Si       1.33359715       1.33987206      -1.32909058       0.00000000
Si      -1.33001335       1.41962790       1.28674279       0.00000000
Si       1.43399242      -1.34659331       1.26168129       0.00000000
Si      -1.36054081      -1.28273726      -1.41021221       0.00000000
Si       0.05444118      -2.69055091       2.59670903       0.00000000
Si      -2.67846698       0.04542955       2.62372526       0.00000000
Si       2.78045868       0.04181643       2.60085190       0.00000000
Si       0.05528826       2.77037842       2.61205518       0.00000000
Si      -2.71041167      -2.67790987      -0.09972082       0.00000000
Si      -0.04020372      -2.77174027      -2.61877714       0.00000000
