10
Lattice="16.290000149 0.0 0.0 0.0 16.290000149 0.0 0.0 0.0 29.1751946751" Properties=species:S:1:pos:R:3:initial_magmoms:R:1 pbc="T T T"
Si      -0.53375814      -0.25800102       1.38660948       0.00000000
H       -0.67966768      -0.92680327      -1.61618908       0.00000000
H       -1.60138846       0.84538585      -1.17103396       0.00000000
H        1.27037566       1.76050919       0.43155948       0.00000000
Si       0.44935965      -0.98820028      -2.62112866       0.00000000
Si       2.17878752       1.83246212      -0.78501696       0.00000000
Si       2.50470155      -0.28885428      -1.71669763       0.00000000
Si       1.15585696      -1.18731295       2.69777190       0.00000000
Si      -2.33181578      -1.85388347       1.26833324       0.00000000
Si      -1.38448711       1.61629381       2.50235645       0.00000000
