10
Lattice="16.290000149 0.0 0.0 0.0 16.290000149 0.0 0.0 0.0 29.1751946751" Properties=species:S:1:pos:R:3:initial_magmoms:R:1 pbc="T T T"
H        0.72197281       0.08739585       1.32137374       0.00000000
H       -1.39507561       0.84012418       1.62870524       0.00000000
Si       1.60762753      -0.79115644      -1.52285764       0.00000000
Si      -1.87312196      -1.46210896      -0.15839213       0.00000000
Si      -0.34502220       1.94924513      -1.36793735       0.00000000
H        1.86792545       1.70942375       0.19535710       0.00000000
H        2.52231104       1.29143863       0.23433516       0.00000000
Si      -0.79431670       0.93182059       3.02861861       0.00000000
Si       0.12227274      -1.80545330      -2.99267477       0.00000000
Si      -0.99799057      -3.24374628      -1.44151719       0.00000000
