10
Lattice="16.290000149 0.0 0.0 0.0 16.290000149 0.0 0.0 0.0 29.1751946751" Properties=species:S:1:pos:R:3:initial_magmoms:R:1 pbc="T T T"
Si      -1.43399242       1.34659331      -1.26168129       0.00000000
Si      -1.37955124      -1.34395759       1.33502773       0.00000000
Si       1.34646625       1.38840974       1.33917061       0.00000000
Si       1.35410626      -1.32918256      -1.40122625       0.00000000
Si      -0.10039527       2.68646537      -2.59077187       0.00000000
Si      -0.01034415      -2.69192252       2.67653236       0.00000000
Si       2.70019784      -2.67423158      -0.03582714       0.00000000
Si       2.70731657       0.03588687       2.69109078       0.00000000
Si      -2.72924292       0.03305241       2.68426379       0.00000000
Si      -0.06775011      -2.78905980      -2.62644439       0.00000000
