10
Lattice="16.290000149 0.0 0.0 0.0 16.290000149 0.0 0.0 0.0 29.1751946751" Properties=species:S:1:pos:R:3:initial_magmoms:R:1 pbc="T T T"
Si       1.34609158      -1.34504902       1.36539911       0.00000000
Si      -1.35410626       1.32918256       1.40122625       0.00000000
Si      -1.42185637      -1.45987723      -1.22521814       0.00000000
Si       1.46034964       1.43671790      -1.21490762       0.00000000
Si      -0.99595432       0.92603764      -3.42157931       0.00000000
Si       0.04352688       2.77989341      -2.46945266       0.00000000
Si      -2.82830241      -0.09596439      -2.47923219       0.00000000
Si       2.69027723      -2.64823274      -0.05823369       0.00000000
Si      -0.08390979      -2.61415406      -2.78203862       0.00000000
Si      -0.00948078      -2.71572221       2.71171764       0.00000000
