10
Lattice="16.290000149 0.0 0.0 0.0 16.290000149 0.0 0.0 0.0 29.1751946751" Properties=species:S:1:pos:R:3:initial_magmoms:R:1 pbc="T T T"
Si       1.34791606       1.36171369       1.35078234       0.00000000
Si      -1.34298834       1.35710362      -1.36446550       0.00000000
Si       1.35856972      -1.35578413      -1.35434171       0.00000000
Si      -1.36808308      -1.36471105       1.34410122       0.00000000
Si      -0.03383433      -2.69882948      -2.68417626       0.00000000
Si       2.69128721      -0.02101410       2.69424170       0.00000000
Si      -2.67832885      -0.01922220      -2.70964621       0.00000000
Si      -0.04166982       2.71164971       2.68388451       0.00000000
Si       2.69707016       2.70969491      -0.02625768       0.00000000
Si       2.68866452      -2.72554508       0.01805945       0.00000000
