10
Lattice="16.290000149 0.0 0.0 0.0 16.290000149 0.0 0.0 0.0 29.1751946751" Properties=species:S:1:pos:R:3:initial_magmoms:R:1 pbc="T T T"
Si      -1.36920709       1.34796493      -1.34150463       0.00000000
Si      -1.37516923      -1.34255665       1.34235071       0.00000000
Si       1.35496963      -1.35298225      -1.36604097       0.00000000
Si       1.35733168       1.36451557       1.35617975       0.00000000
Si       0.01034415       2.69192252      -2.67653236       0.00000000
Si      -0.01352070      -2.73766484       2.64776562       0.00000000
Si       2.71800281      -2.69293250      -0.00259659       0.00000000
Si       2.71054199       0.01769094      -2.71235950       0.00000000
Si      -2.73290816       0.02463048       2.69033223       0.00000000
Si      -2.72911260      -2.69625566      -0.01826367       0.00000000
