10
Lattice="16.290000149 0.0 0.0 0.0 16.290000149 0.0 0.0 0.0 29.1751946751" Properties=species:S:1:pos:R:3:initial_magmoms:R:1 pbc="T T T"
Si      -1.47950017       1.07590564       1.43559463       0.00000000
Si      -1.41847783      -1.43788573      -1.17237602       0.00000000
Si       1.56312977      -1.07527033       1.36382365       0.00000000
Si       1.30783289       1.48983454      -1.27250529       0.00000000
H       -2.51438759      -0.03073923       1.64072542       0.00000000
Si       1.98829877       0.73912618       2.84761570       0.00000000
Si      -0.31850208       0.91316854       3.45285511       0.00000000
Si       0.01483530      -2.68379381      -2.53999245       0.00000000
Si      -2.70731006      -0.01832625      -2.52823484       0.00000000
Si       2.81314293       0.15760575      -2.52231228       0.00000000
