10
Lattice="16.290000149 0.0 0.0 0.0 16.290000149 0.0 0.0 0.0 29.1751946751" Properties=species:S:1:pos:R:3:initial_magmoms:R:1 pbc="T T T"
Si      -1.41701987       1.22300434      -1.37607723       0.00000000
Si      -1.30783289      -1.48983454       1.27250529       0.00000000
Si       1.50531004      -1.33222879      -1.24980699       0.00000000
Si       0.65914228       1.88035472       1.29534947       0.00000000
Si       0.04942386       2.60622083      -2.59233275       0.00000000
Si       0.25529688      -2.56510487       2.63632894       0.00000000
Si      -2.75328696       2.52020963       0.05321556       0.00000000
Si       0.07151310      -2.74206315      -2.56735878       0.00000000
Si      -2.70005123      -0.17800083      -2.70538663       0.00000000
Si      -0.98717401       3.53968671       1.19837112       0.00000000
