10
Lattice="16.290000149 0.0 0.0 0.0 16.290000149 0.0 0.0 0.0 29.1751946751" Properties=species:S:1:pos:R:3:initial_magmoms:R:1 pbc="T T T"
Si      -1.41289687      -1.29629305      -1.34363587       0.00000000
Si      -1.38192958       1.35643573       1.32458010       0.00000000
Si       1.32129820       1.40320432      -1.34305850       0.00000000
Si       1.37153656      -1.41204979       1.30393573       0.00000000
Si       2.62531271       2.58742217       0.21038233       0.00000000
Si       2.66284487       0.04782744      -2.68731551       0.00000000
Si      -0.10577097      -2.72135855      -2.64585756       0.00000000
Si      -2.69193881       0.19919412      -2.68148047       0.00000000
Si      -2.73517248      -0.04137660       2.64483059       0.00000000
Si      -0.04489524       2.68125257       2.72943866       0.00000000
