10
Lattice="16.290000149 0.0 0.0 0.0 16.290000149 0.0 0.0 0.0 29.1751946751" Properties=species:S:1:pos:R:3:initial_magmoms:R:1 pbc="T T T"
Si      -0.98249878       1.85807000      -0.89454064       0.00000000
Si      -1.76798630      -1.48058182       0.33423103       0.00000000
Si       0.38235888       0.64799992       2.22303313       0.00000000
Si       1.76018339      -0.96896179      -1.26162294       0.00000000
H       -0.38934729      -1.22210839      -2.57587794       0.00000000
Si       1.87061330      -1.22088664       2.57368980       0.00000000
Si       2.50017293      -2.29273607       0.52637886       0.00000000
Si      -2.46785357       0.84377314      -2.36435778       0.00000000
Si      -1.07815366      -3.52901839      -0.43120938       0.00000000
Si      -3.58811688      -0.59451985      -0.81320020       0.00000000
