10
Lattice="16.290000149 0.0 0.0 0.0 16.290000149 0.0 0.0 0.0 29.1751946751" Properties=species:S:1:pos:R:3:initial_magmoms:R:1 pbc="T T T"
Si       1.38192958      -1.35643573      -1.32458010       0.00000000
Si       1.33703434       1.32481684       1.40485856       0.00000000
Si      -1.35324289      -1.39781233       1.32025050       0.00000000
Si      -1.32900337       1.39569463      -1.36911895       0.00000000
Si      -0.03096729      -2.65272878      -2.66821597       0.00000000
Si      -2.65872350       2.71016732       0.05046142       0.00000000
Si       2.70322778       0.04676859      -2.66763859       0.00000000
Si      -2.70539435      -0.02857266       2.67847251       0.00000000
Si      -2.75545353       0.03611493      -2.64861082       0.00000000
Si       2.68690520       2.71998945       0.09436717       0.00000000
