10
Lattice="16.290000149 0.0 0.0 0.0 16.290000149 0.0 0.0 0.0 29.1751946751" Properties=species:S:1:pos:R:3:initial_magmoms:R:1 pbc="T T T"
H        0.53375814       0.25800102      -1.38660948       0.00000000
Si       1.68961511      -0.92931193       1.31116242       0.00000000
Si      -0.85072897       1.87429484       1.11574697       0.00000000
Si      -1.79805764      -1.59588244      -0.11827624       0.00000000
H        1.80413381       2.01851021      -0.95505000       0.00000000
H       -1.06763032       1.10338687      -2.55764344       0.00000000
H       -0.14590953      -0.66880225      -3.00279856       0.00000000
Si      -2.16121061       0.50777559       2.60251489       0.00000000
Si       2.66198150      -2.38343879      -0.20046276       0.00000000
Si       0.42495723      -2.41277708       2.63813780       0.00000000
