10
Lattice="16.290000149 0.0 0.0 0.0 16.290000149 0.0 0.0 0.0 29.1751946751" Properties=species:S:1:pos:R:3:initial_magmoms:R:1 pbc="T T T"
Si       1.27891814      -1.37324701       1.38741471       0.00000000
Si      -1.34659820      -1.21335235      -1.48193943       0.00000000
Si      -1.43223999       1.30696300       1.35220025       0.00000000
Si       1.33565621       1.40651119      -1.35328294       0.00000000
Si      -1.63159990       0.61186870      -3.05267356       0.00000000
Si      -0.29805325       2.58999599      -2.56690657       0.00000000
Si       2.60863827      -2.68771970      -0.03216565       0.00000000
Si      -2.82459806      -2.52073091      -0.10899269       0.00000000
Si      -0.06994926       2.70216893       2.67030346       0.00000000
Si       2.58030996      -0.04607301       2.81302851       0.00000000
