10
Lattice="16.290000149 0.0 0.0 0.0 16.290000149 0.0 0.0 0.0 29.1751946751" Properties=species:S:1:pos:R:3:initial_magmoms:R:1 pbc="T T T"
Si      -1.40349917       1.32502861       1.30841996       0.00000000
Si       1.36806516      -1.23903370       1.44644780       0.00000000
Si       1.33206426       1.39774717      -1.34068772       0.00000000
Si      -1.39377404      -1.37422441      -1.31008294       0.00000000
Si       2.56728610      -2.63845874      -0.02987540       0.00000000
Si      -0.12046781       2.72603379       2.63772935       0.00000000
Si       2.62910666       0.04033404      -2.75962331       0.00000000
Si      -2.67260421       2.71753040      -0.06666532       0.00000000
Si       0.00355448      -2.67059891       2.74631943       0.00000000
Si      -2.73028710      -0.01743030      -2.69783025       0.00000000
