10
Lattice="16.290000149 0.0 0.0 0.0 16.290000149 0.0 0.0 0.0 29.1751946751" Properties=species:S:1:pos:R:3:initial_magmoms:R:1 pbc="T T T"
Si      -1.33013064       1.35783667      -1.36531159       0.00000000
Si       1.31106808       1.43119054       1.32114034       0.00000000
Si      -1.34258435      -1.36989127       1.36251077       0.00000000
Si       1.37725435      -1.34482096      -1.35845541       0.00000000
Si       2.65269620       0.06129927       2.62538824       0.00000000
Si      -2.64999206       2.69542487       0.04093280       0.00000000
Si       2.68395671       2.68490153      -0.11206192       0.00000000
Si      -2.67260258      -0.00392589      -2.71871969       0.00000000
Si      -2.61459699      -0.00856854       2.78465563       0.00000000
Si       0.02195892      -2.71306694      -2.69590469       0.00000000
