10
Lattice="16.290000149 0.0 0.0 0.0 16.290000149 0.0 0.0 0.0 29.1751946751" Properties=species:S:1:pos:R:3:initial_magmoms:R:1 pbc="T T T"
Si      -1.33109191      -1.41584536       1.28755969       0.00000000
Si       1.31452954      -1.39683493      -1.35775521       0.00000000
Si      -1.47393892       1.32413266      -1.26667025       0.00000000
Si       1.35540278       1.34140006       1.38757226       0.00000000
Si      -0.09697779       2.65175138      -2.65220025       0.00000000
Si       2.66844521      -0.04088790      -2.70570755       0.00000000
Si       2.68649453       2.68922871       0.01560873       0.00000000
Si      -0.06581502       2.68986296       2.69036140       0.00000000
Si       2.67357656      -2.73562859       0.01353729       0.00000000
Si      -2.73522477      -0.04786002      -2.71638568       0.00000000
