10
Lattice="16.290000149 0.0 0.0 0.0 16.290000149 0.0 0.0 0.0 29.1751946751" Properties=species:S:1:pos:R:3:initial_magmoms:R:1 pbc="T T T"
Si       1.43961247      -1.32496396       1.27227189       0.00000000
Si      -1.39341403      -1.41499177      -1.26208975       0.00000000
Si      -1.23297382       1.43408039       1.41114582       0.00000000
Si       1.38121282       1.33883276      -1.38331268       0.00000000
Si       0.12289176      -2.69393597       2.61861960       0.00000000
Si      -2.58683573       2.74435026      -0.01444172       0.00000000
Si      -2.66304035      -0.02548571      -2.69103243       0.00000000
Si       0.03148857      -2.69069426      -2.68475976       0.00000000
Si       2.67888075       0.05309074       2.70833332       0.00000000
Si       2.76057347       2.70225690      -0.05236947       0.00000000
