10
Lattice="16.290000149 0.0 0.0 0.0 16.290000149 0.0 0.0 0.0 29.1751946751" Properties=species:S:1:pos:R:3:initial_magmoms:R:1 pbc="T T T"
Si       1.37037997       1.36138789       1.32703373       0.00000000
Si       1.38562741      -1.31492881      -1.35769686       0.00000000
Si      -1.35570268       1.37002159      -1.33908309       0.00000000
Si      -1.35583300      -1.35265645       1.36093531       0.00000000
Si       0.00705357      -2.67853214      -2.66282002       0.00000000
Si      -0.00873144       2.70754463       2.64998293       0.00000000
Si       0.02458161       2.68783373      -2.70232323       0.00000000
Si       2.71513577      -2.68299560       0.01697996       0.00000000
Si      -2.73106740       0.01498680       2.67647401       0.00000000
Si      -2.73362493      -2.68912064       0.01528780       0.00000000
