10
Lattice="16.290000149 0.0 0.0 0.0 16.290000149 0.0 0.0 0.0 29.1751946751" Properties=species:S:1:pos:R:3:initial_magmoms:R:1 pbc="T T T"
Si       1.72504586       0.94019365       1.27594534       0.00000000
Si      -0.86576464      -1.72797317       1.38264778       0.00000000
Si       0.73024813      -0.63319231      -2.18001693       0.00000000
Si      -1.70526980       1.66861730       0.12669649       0.00000000
H       -2.91786483      -0.94998394      -0.67224287       0.00000000
Si       0.46693656       2.34126398       2.64051587       0.00000000
Si      -2.36379305      -0.49221864       2.66255482       0.00000000
Si      -0.84333331      -2.32083306      -2.62170021       0.00000000
Si       2.97592239      -1.13953438      -1.90256083       0.00000000
Si      -2.35783091       2.09223875      -2.00534504       0.00000000
