10
Lattice="16.290000149 0.0 0.0 0.0 16.290000149 0.0 0.0 0.0 29.1751946751" Properties=species:S:1:pos:R:3:initial_magmoms:R:1 pbc="T T T"
Si       1.32147739       1.32569650      -1.36542508       0.00000000
Si      -1.25810929       1.40107033       1.36457054       0.00000000
Si      -1.72504586      -0.94019365      -1.27594534       0.00000000
Si       1.45023644      -1.38463372       1.22636764       0.00000000
Si      -3.43031565       0.72842365      -1.14924885       0.00000000
Si      -2.57292407       2.66481596      -0.10830416       0.00000000
Si      -2.59081049      -2.66816682       0.10670244       0.00000000
Si       2.58442318      -0.10160073      -2.69273918       0.00000000
Si      -2.66924684      -0.00322542       2.62231026       0.00000000
Si       2.81252717       0.01057221       2.54447084       0.00000000
