10
Lattice="16.290000149 0.0 0.0 0.0 16.290000149 0.0 0.0 0.0 29.1751946751" Properties=species:S:1:pos:R:3:initial_magmoms:R:1 pbc="T T T"
Si      -0.66176497       0.36738837      -2.14881144       0.00000000
Si       1.48721185      -1.80657731       0.11553377       0.00000000
Si       0.96229918       2.01839618       0.87277595       0.00000000
Si      -2.12548664      -0.59010526       1.00170113       0.00000000
H        0.08746101      -0.82992664       2.56499559       0.00000000
H        0.74184661      -1.24791175       2.60397365       0.00000000
H        2.26277876       1.58206852       1.52008599       0.00000000
H        2.92161153       1.46028448      -0.85057363       0.00000000
Si      -2.35432856       1.54549747       1.90907886       0.00000000
Si      -0.17283690      -3.33050682       0.84678085       0.00000000
