10
Lattice="16.290000149 0.0 0.0 0.0 16.290000149 0.0 0.0 0.0 29.1751946751" Properties=species:S:1:pos:R:3:initial_magmoms:R:1 pbc="T T T"
Si      -1.36229073      -1.39520593      -1.31810320       0.00000000
Si       1.29406784      -1.35291709       1.43183103       0.00000000
Si      -1.35042668       1.32669019       1.40636108       0.00000000
Si       1.37427980       1.36091548      -1.36159175       0.00000000
Si      -2.66148629      -2.68571766       0.15384080       0.00000000
Si      -2.81252717      -0.01057221      -2.54447084       0.00000000
Si       0.06994926      -2.70216893      -2.67030346       0.00000000
Si       2.69469834       2.70176168       0.03288044       0.00000000
Si       2.65025922      -2.74824194       0.14272505       0.00000000
Si      -2.68057817       2.73546569       0.09569464       0.00000000
