10
Lattice="16.290000149 0.0 0.0 0.0 16.290000149 0.0 0.0 0.0 29.1751946751" Properties=species:S:1:pos:R:3:initial_magmoms:R:1 pbc="T T T"
Si       1.30489417      -1.38070783       1.37584383       0.00000000
Si      -1.37417554      -1.38324907      -1.30976201       0.00000000
Si      -1.32190093       1.37371942       1.37310136       0.00000000
Si       1.35423658       1.34868169      -1.37444342       0.00000000
Si      -2.68350059       2.70091460      -0.01517110       0.00000000
Si       2.68425482      -0.01728369       2.70678704       0.00000000
Si      -0.00180819      -2.71732189      -2.67997503       0.00000000
Si      -2.69581583      -0.01575243      -2.70241076       0.00000000
Si       2.69670853       2.71044425      -0.02103532       0.00000000
Si      -2.66315438       0.02480967       2.74471479       0.00000000
