10
Lattice="16.290000149 0.0 0.0 0.0 16.290000149 0.0 0.0 0.0 29.1751946751" Properties=species:S:1:pos:R:3:initial_magmoms:R:1 pbc="T T T"
Si       1.36904638      -1.35669637       1.34007504       0.00000000
Si       1.39856167       1.33455826      -1.33444423       0.00000000
Si      -1.35044101       1.36171369       1.35973912       0.00000000
Si      -1.35755974      -1.34840476      -1.36717880       0.00000000
Si       0.08172693       2.76955904      -2.61042137       0.00000000
Si       0.02119329      -2.71073747       2.69666324       0.00000000
Si       2.70046174      -2.70676271      -0.04927690       0.00000000
Si      -2.71077005      -0.00158013       2.70136045       0.00000000
Si       2.68376612       0.00996948       2.73324894       0.00000000
Si      -2.71129133       2.71423657       0.00781895       0.00000000
