10
Lattice="16.290000149 0.0 0.0 0.0 16.290000149 0.0 0.0 0.0 29.1751946751" Properties=species:S:1:pos:R:3:initial_magmoms:R:1 pbc="T T T"
Si       1.34576090       1.46181574      -1.23357595       0.00000000
Si       1.38555737      -1.33988509       1.37195478       0.00000000
Si      -1.36028506       1.45836226       1.28719792       0.00000000
Si      -1.22016451      -1.48998115      -1.39843127       0.00000000
Si      -2.67935153      -2.66872556       0.01847373       0.00000000
Si      -2.66296379       0.10441890       2.72183560       0.00000000
Si      -0.01176138       2.70410744      -2.69007548       0.00000000
Si       2.79120519       0.26845920      -2.59102570       0.00000000
Si       0.03995611      -2.66875814       2.75372409       0.00000000
Si       0.03030266       2.74533744       2.72180643       0.00000000
