10
Lattice="16.290000149 0.0 0.0 0.0 16.290000149 0.0 0.0 0.0 29.1751946751" Properties=species:S:1:pos:R:3:initial_magmoms:R:1 pbc="T T T"
Si       1.44190936       1.32616891       1.21185006       0.00000000
Si      -1.23673681       1.39134520      -1.37231363       0.00000000
Si       1.52220277      -1.31536213      -1.19758339       0.00000000
Si      -1.16274763      -1.43799325       1.50409799       0.00000000
H        2.08751465       0.48221658       2.28876485       0.00000000
Si       2.50519025      -2.16536130       0.79327354       0.00000000
Si       0.75644245      -2.49305420       2.28433022       0.00000000
Si       0.00900837       2.54809811       2.50028501       0.00000000
Si      -2.41518800      -2.76141567       0.03614807       0.00000000
Si      -2.52957638      -0.04580748      -2.68417626       0.00000000
