10
Lattice="10.86 0.0 0.0 0.0 10.86 0.0 0.0 0.0 10.86" Properties=species:S:1:pos:R:3:initial_magmoms:R:1 pbc="T T T"
Si       1.54757172       1.15540626       1.07813736       0.00000000
Si      -1.16742828       1.15540626      -1.63686264       0.00000000
Si      -0.77878146      -2.19171090       1.30456836       0.00000000
Si       1.54757172      -1.55959374      -1.63686264       0.00000000
Si      -2.22497508      -0.35993298       2.19337248       0.00000000
Si       0.19007172       2.51290626       2.43563736       0.00000000
Si      -2.52492828       2.51290626      -0.27936264       0.00000000
Si       2.90507172       2.51290626      -0.27936264       0.00000000
Si       0.19007172       2.51290626      -2.99436264       0.00000000
Si      -2.52492828      -0.20209374      -2.99436264       0.00000000
