10
Lattice="16.28999089631971 0.0 0.0 0.0 16.28999089631971 0.0 0.0 0.0 34.2284985734139" Properties=species:S:1:pos:R:3:initial_magmoms:R:1 pbc="T T T"
Si      -1.31663925       1.30110620      -1.44178731       0.00000000
Si       1.34374581       1.35723339       1.36391059       0.00000000
Si      -1.37388231      -1.35434203       1.36093271       0.00000000
Si       1.27728261      -1.46589595      -1.38776102       0.00000000
Si      -2.16627678      -0.54621142      -2.65666420       0.00000000
Si      -0.61757019      -2.39566399      -2.55308836       0.00000000
Si       2.68851789       2.70907533      -0.00704423       0.00000000
Si       2.69638596       0.00333575       2.72148206       0.00000000
Si      -0.01751175      -2.71234159       2.72086595       0.00000000
Si       2.69402391      -2.74122376      -0.00652738       0.00000000
