10
Lattice="16.28999089631971 0.0 0.0 0.0 16.28999089631971 0.0 0.0 0.0 34.2284985734139" Properties=species:S:1:pos:R:3:initial_magmoms:R:1 pbc="T T T"
Si       1.35052245       1.33600806       1.37304276       0.00000000
Si       1.35213516      -1.35735285      -1.35582581       0.00000000
Si      -1.34110683      -1.36268782       1.36421180       0.00000000
Si      -1.36039419       1.35395964      -1.35609964       0.00000000
Si      -0.07180632       2.65447179       2.72411081       0.00000000
Si       2.71231758      -0.00035838      -2.71291808       0.00000000
Si      -0.00275301       2.71422351      -2.71326037       0.00000000
Si      -0.00241092      -2.71564694      -2.71322614       0.00000000
Si      -2.71754667      -0.00035838      -2.71302077       0.00000000
Si       2.71528236       2.71529865       0.00444971       0.00000000
