10
Lattice="16.28999089631971 0.0 0.0 0.0 16.28999089631971 0.0 0.0 0.0 34.2284985734139" Properties=species:S:1:pos:R:3:initial_magmoms:R:1 pbc="T T T"
Si       1.25617077       0.45189600       1.87349792       0.00000000
Si       1.31826825      -0.21095224      -1.91799499       0.00000000
Si      -0.16757523      -2.32609212       0.28317253       0.00000000
Si      -1.94418055       1.24991215       0.44240359       0.00000000
Si      -0.55871442      -0.95678730      -3.06523222       0.00000000
Si      -2.05293259      -2.03844330      -1.64101782       0.00000000
Si      -1.01869515      -2.18811582       2.56960328       0.00000000
Si       3.12979770      -0.83872551       1.41158407       0.00000000
Si      -0.36825174      -0.15525836       3.58540300       0.00000000
Si      -1.83578363       1.53945061       2.88577210       0.00000000
