10
Lattice="16.28999089631971 0.0 0.0 0.0 16.28999089631971 0.0 0.0 0.0 34.2284985734139" Properties=species:S:1:pos:R:3:initial_magmoms:R:1 pbc="T T T"
Si      -1.87362693       1.29062151       0.46191385       0.00000000
Si      -0.69784731      -2.05303686      -0.84205576       0.00000000
Si       0.06524145      -0.22757946       2.33667822       0.00000000
Si       2.07906012       1.33125366      -0.95480450       0.00000000
Si       2.34305586      -0.60967770       2.09478528       0.00000000
Si      -0.54713223       3.21440698       0.32493132       0.00000000
Si      -0.17669763      -1.21682229      -3.16018213       0.00000000
Si      -3.12979770       0.83872551      -1.41158407       0.00000000
Si       0.10394649      -3.43975569       1.19649206       0.00000000
Si       3.59575686       0.77024724       0.77928066       0.00000000
