10
Lattice="16.28999089631971 0.0 0.0 0.0 16.28999089631971 0.0 0.0 0.0 34.2284985734139" Properties=species:S:1:pos:R:3:initial_magmoms:R:1 pbc="T T T"
Si       1.75360221       0.39366414      -1.49718959       0.00000000
Si      -1.32649470      -1.92378547       0.13698253       0.00000000
Si      -1.63908351       1.61318241      -0.43952840       0.00000000
Si       1.37446875       0.05967027       1.92306081       0.00000000
Si       0.54713223      -3.21440698      -0.32493132       0.00000000
Si       2.62619235      -1.88315332      -1.27973582       0.00000000
Si      -3.11381721       1.11483873       1.42188685       0.00000000
Si       0.72549144       2.12507937       2.87577737       0.00000000
Si       0.57964707       1.07808849      -3.46365216       0.00000000
Si      -0.38157696       3.64285125      -0.74436757       0.00000000
