10
Lattice="16.28999089631971 0.0 0.0 0.0 16.28999089631971 0.0 0.0 0.0 34.2284985734139" Properties=species:S:1:pos:R:3:initial_magmoms:R:1 pbc="T T T"
Si      -0.00281817      -1.86759053      -1.42397479       0.00000000
Si       0.75927690       1.63406619      -1.51266088       0.00000000
Si       1.75679505      -0.57178877       1.51314008       0.00000000
Si      -1.92523365       1.00688490       0.99926735       0.00000000
Si       2.27499624      -2.24968877      -1.66586773       0.00000000
Si      -1.07072541       1.60966377       3.11698574       0.00000000
Si      -3.57067026      -0.67975726       0.83250601       0.00000000
Si       0.11029959       3.69947529      -0.55994432       0.00000000
Si       2.90019015       1.33610580       2.02044094       0.00000000
Si      -2.23480881       3.07110483      -0.16498146       0.00000000
