10
Lattice="16.28999089631971 0.0 0.0 0.0 16.28999089631971 0.0 0.0 0.0 34.2284985734139" Properties=species:S:1:pos:R:3:initial_magmoms:R:1 pbc="T T T"
Si       1.35355239       1.34643366      -1.36499906       0.00000000
Si       1.28516697      -1.42904025       1.35599696       0.00000000
Si      -1.36085031      -1.36705680      -1.36362992       0.00000000
Si      -1.47989763       1.22003955       1.38926708       0.00000000
Si      -2.08616256      -0.64413918       2.87844720       0.00000000
Si      -0.39157902      -2.47565646       2.67759425       0.00000000
Si       2.69145009       2.71168227       0.00171143       0.00000000
Si      -0.00304623       2.70265761      -2.72356315       0.00000000
Si      -2.74049928       2.69298135       0.00444971       0.00000000
Si       2.71120986      -0.01166364      -2.72424772       0.00000000
