10
Lattice="16.28999089631971 0.0 0.0 0.0 16.28999089631971 0.0 0.0 0.0 34.2284985734139" Properties=species:S:1:pos:R:3:initial_magmoms:R:1 pbc="T T T"
Si      -1.28516697       1.42904025      -1.35599696       0.00000000
Si       1.42232877      -1.31846373      -1.35106805       0.00000000
Si      -1.67674599      -1.04661621       1.32159730       0.00000000
Si       1.72428021       1.07414631       1.24383010       0.00000000
Si      -0.50279085      -1.73104056       3.28805987       0.00000000
Si      -3.37132953       0.78490107       1.52245024       0.00000000
Si      -2.64601728       0.06198345      -2.71962687       0.00000000
Si       0.07180632      -2.65447179      -2.72411081       0.00000000
Si       3.43976382      -0.82942164       1.43924071       0.00000000
Si      -2.76506460       2.64907980       0.03327012       0.00000000
