10
Lattice="16.28999089631971 0.0 0.0 0.0 16.28999089631971 0.0 0.0 0.0 34.2284985734139" Properties=species:S:1:pos:R:3:initial_magmoms:R:1 pbc="T T T"
Si      -0.54830511      -1.61565849       1.65549649       0.00000000
Si       0.07350048       2.22839055       0.94244801       0.00000000
Si       2.11108626      -0.37830267      -1.14935940       0.00000000
Si      -1.65537351      -0.09788661      -1.96464846       0.00000000
Si       3.34580310       0.59790816       0.57890692       0.00000000
Si      -0.13214448       2.19535443      -2.73123034       0.00000000
Si       2.60488503      -0.92266560       2.18860565       0.00000000
Si       0.10067220      -3.68106759       0.70277993       0.00000000
Si       1.92322998       0.97759548      -3.06998998       0.00000000
Si      -0.82179792       3.56645115      -0.87474400       0.00000000
