10
Lattice="16.28999089631971 0.0 0.0 0.0 16.28999089631971 0.0 0.0 0.0 34.2284985734139" Properties=species:S:1:pos:R:3:initial_magmoms:R:1 pbc="T T T"
Si       1.34612415      -1.72540422      -0.95446222       0.00000000
Si      -2.12481873      -0.86861538       0.72061298       0.00000000
Si      -0.20725767       1.77223797      -1.62078877       0.00000000
Si       1.09753875       0.61618554       2.07613074       0.00000000
Si       0.11016927       3.53199780      -0.07954708       0.00000000
Si       0.92422944      -1.33478631       3.35189605       0.00000000
Si      -3.17220057       1.05262722       1.72374815       0.00000000
Si      -3.22291134      -1.56432870      -1.23944885       0.00000000
Si      -1.98843885       3.08496762       1.06734787       0.00000000
Si       1.30328145      -3.59277579       0.45256946       0.00000000
