10
Lattice="16.28999089631971 0.0 0.0 0.0 16.28999089631971 0.0 0.0 0.0 34.2284985734139" Properties=species:S:1:pos:R:3:initial_magmoms:R:1 pbc="T T T"
Si       1.34473950       1.35081567       1.36097378       0.00000000
Si      -1.28327733       1.42921944      -1.35922471       0.00000000
Si      -1.36765953      -1.36291914       1.36022076       0.00000000
Si       1.55374020      -1.22930856      -1.30878556       0.00000000
Si       0.14638194      -2.58664023      -2.56070181       0.00000000
Si      -2.58004278      -0.04461831      -2.69585185       0.00000000
Si       0.30768552       2.49632847      -2.87858552       0.00000000
Si       2.70329292      -0.00439830       2.71981171       0.00000000
Si       2.74305681       2.68612326      -0.00477146       0.00000000
Si      -0.01081656       2.71384884       2.71994862       0.00000000
