10
Lattice="16.28999089631971 0.0 0.0 0.0 16.28999089631971 0.0 0.0 0.0 34.2284985734139" Properties=species:S:1:pos:R:3:initial_magmoms:R:1 pbc="T T T"
Si      -1.35736425       1.35527913      -1.35332713       0.00000000
Si       1.35666378       1.35509994       1.35733187       0.00000000
Si      -1.35723393      -1.35974259       1.35674998       0.00000000
Si       1.35555606      -1.36303317      -1.35897484       0.00000000
Si      -0.00783549       2.69786835      -2.71502998       0.00000000
Si      -2.70513369       0.00693954      -2.71650866       0.00000000
Si      -2.71484253       2.71075374      -0.00068457       0.00000000
Si       2.71437012       2.71147050      -0.00030806       0.00000000
Si      -0.00017919       2.71244790       2.71367111       0.00000000
Si       2.71456560      -0.00223173       2.71401340       0.00000000
