10
Lattice="16.28999089631971 0.0 0.0 0.0 16.28999089631971 0.0 0.0 0.0 34.2284985734139" Properties=species:S:1:pos:R:3:initial_magmoms:R:1 pbc="T T T"
Si       2.36060019       0.52851276      -0.03967085       0.00000000
Si      -0.07350048      -2.22839055      -0.94244801       0.00000000
Si      -0.89529840       1.33806060      -1.81719200       0.00000000
Si      -1.12210407       0.37053234       2.12381107       0.00000000
Si       3.27230262      -1.63048239      -0.36354109       0.00000000
Si      -0.20564496      -0.03303612      -3.67367835       0.00000000
Si      -3.37950711       0.81335970       1.38628920       0.00000000
Si       2.03758578      -2.60669322      -2.09180740       0.00000000
Si      -0.69621831       3.66669981      -1.29116814       0.00000000
Si      -0.62180559      -3.84404904       0.71304848       0.00000000
