10
Lattice="16.28999089631971 0.0 0.0 0.0 16.28999089631971 0.0 0.0 0.0 34.2284985734139" Properties=species:S:1:pos:R:3:initial_magmoms:R:1 pbc="T T T"
Si       0.31742694       1.75975983       1.54124170       0.00000000
Si       0.20725767      -1.77223797       1.62078877       0.00000000
Si      -2.25740304       0.44282736      -0.73752187       0.00000000
Si       1.12210407      -0.37053234      -2.12381107       0.00000000
Si      -1.78118118       1.31272965       2.68813664       0.00000000
Si       0.28696464       3.84160554       0.39236150       0.00000000
Si       1.55338182      -3.49764219       0.66632655       0.00000000
Si      -3.56237865      -1.42640127      -0.81994414       0.00000000
Si      -1.91756106      -2.64085335       2.34140175       0.00000000
Si       0.22680567       0.96752826      -3.94100307       0.00000000
