10
Lattice="16.28999089631971 0.0 0.0 0.0 16.28999089631971 0.0 0.0 0.0 34.2284985734139" Properties=species:S:1:pos:R:3:initial_magmoms:R:1 pbc="T T T"
Si       0.24265584       1.35604476       1.84108351       0.00000000
Si      -1.82876427       0.91686636      -1.15647893       0.00000000
Si       2.09860812       0.44703018      -1.14689494       0.00000000
Si      -1.18376172      -2.03234040       0.65640028       0.00000000
Si       1.78118118      -1.31272965      -2.68813664       0.00000000
Si      -0.47622186      -0.86990229      -3.42565851       0.00000000
Si       2.02636197      -1.28651904       2.78093015       0.00000000
Si      -2.86172783      -0.86346774      -2.37600678       0.00000000
Si       1.98843885      -3.08496762      -1.06734787       0.00000000
Si      -3.34812442      -1.92640653      -0.34273015       0.00000000
