10
Lattice="16.28999089631971 0.0 0.0 0.0 16.28999089631971 0.0 0.0 0.0 34.2284985734139" Properties=species:S:1:pos:R:3:initial_magmoms:R:1 pbc="T T T"
Si       1.19871594       0.88327638      -1.87110192       0.00000000
Si      -1.65165939       1.29217167       1.31547039       0.00000000
Si       2.55435345       0.47338740       0.14865445       0.00000000
Si      -1.87936101      -1.97553717      -0.79516269       0.00000000
Si       1.46662128       0.07081263       2.49638848       0.00000000
Si      -2.84319144       0.04663827      -1.71679976       0.00000000
Si      -0.43640910      -1.51669674       3.03877357       0.00000000
Si       3.08861658      -1.78860942      -0.33307771       0.00000000
Si      -0.06320520      -3.06745587      -1.87021198       0.00000000
Si      -2.97395127       2.05700346      -0.45838831       0.00000000
