10
Lattice="16.28999089631971 0.0 0.0 0.0 16.28999089631971 0.0 0.0 0.0 34.2284985734139" Properties=species:S:1:pos:R:3:initial_magmoms:R:1 pbc="T T T"
Si       0.33502014       2.17548063      -0.84838804       0.00000000
Si       0.10138896      -0.17834781       2.38658340       0.00000000
Si      -2.36096576       0.58145526       0.01321221       0.00000000
Si       0.63785124      -2.04244739      -1.20258474       0.00000000
Si       2.82862818      -1.78169336       0.01139810       0.00000000
Si      -2.97040724      -1.65518878      -0.35460744       0.00000000
Si      -1.03377643       1.75135419      -2.81420027       0.00000000
Si      -1.70736209      -2.12371820      -2.28968246       0.00000000
Si      -0.92481588       1.92213855       2.85120130       0.00000000
Si      -0.28775145       3.47255559       1.13611296       0.00000000
