10
Lattice="16.28999089631971 0.0 0.0 0.0 16.28999089631971 0.0 0.0 0.0 34.2284985734139" Properties=species:S:1:pos:R:3:initial_magmoms:R:1 pbc="T T T"
Si       1.58431653       0.88009398       1.44519647       0.00000000
Si       1.46235330      -1.23711147      -1.41593109       0.00000000
Si      -1.22489397       1.48341042      -1.42969096       0.00000000
Si      -1.84155192      -1.05536394       1.23034407       0.00000000
Si      -3.47638374       0.78923162       1.06094713       0.00000000
Si       0.41420583       1.49271201       3.43572169       0.00000000
Si       0.11306889      -2.58292611      -2.79078796       0.00000000
Si       2.69948106       2.68085249       0.06325430       0.00000000
Si      -2.60007948       0.13046661      -2.78849465       0.00000000
Si      -2.64279186       2.76116219      -0.08296993       0.00000000
