10
Lattice="16.28999089631971 0.0 0.0 0.0 16.28999089631971 0.0 0.0 0.0 34.2284985734139" Properties=species:S:1:pos:R:3:initial_magmoms:R:1 pbc="T T T"
Si      -1.05484266       1.15233831       1.75181554       0.00000000
Si       2.15966304       0.51986277       0.76784834       0.00000000
Si      -0.19908009      -2.32863921      -0.52602386       0.00000000
Si      -0.80179380       1.38671883      -2.03854783       0.00000000
Si      -0.03870504       3.21217623       1.14018615       0.00000000
Si      -2.44279953      -2.26973457      -1.18095232       0.00000000
Si      -0.10394649       3.43975569      -1.19649206       0.00000000
Si      -3.30636501       0.67219056       1.54356923       0.00000000
Si       2.23910937       2.83007799       0.89829322       0.00000000
Si       2.07485730       0.79130304       3.12865766       0.00000000
