10
Lattice="16.28999089631971 0.0 0.0 0.0 16.28999089631971 0.0 0.0 0.0 34.2284985734139" Properties=species:S:1:pos:R:3:initial_magmoms:R:1 pbc="T T T"
Si      -0.64000152       1.59975945       1.54702631       0.00000000
Si       2.21377842       0.24586497      -0.67868305       0.00000000
Si      -0.91592154       0.60690024      -2.05552517       0.00000000
Si       0.03046230      -2.08184571       1.14888020       0.00000000
Si       2.01727215      -1.67298300       2.54930577       0.00000000
Si       3.44496033      -1.00631475       0.79533384       0.00000000
Si       0.10021608       2.66673816      -2.66715456       0.00000000
Si      -2.93301450       2.13433209       1.12002556       0.00000000
Si       2.29858416      -0.02557530      -3.03949237       0.00000000
Si       0.13892112      -0.54543807      -3.80734071       0.00000000
