10
Lattice="16.28999089631971 0.0 0.0 0.0 16.28999089631971 0.0 0.0 0.0 34.2284985734139" Properties=species:S:1:pos:R:3:initial_magmoms:R:1 pbc="T T T"
Si       1.27210239       1.70728715      -1.01552589       0.00000000
Si       1.09143000      -1.95393663      -0.75271933       0.00000000
Si       0.40542552      -0.14722902       2.34287358       0.00000000
Si      -2.19077694      -0.26075403      -1.21398284       0.00000000
Si      -2.82862818       1.78169336      -0.01139810       0.00000000
Si       1.17529092      -1.17291258      -2.92712015       0.00000000
Si       2.79518481       0.39764446      -2.21735761       0.00000000
Si      -1.11772206      -0.63833994      -3.35412091       0.00000000
Si      -0.62372781      -2.24336106       2.82381848       0.00000000
Si      -3.06544568      -2.23161597      -0.28265910       0.00000000
