10
Lattice="16.28999089631971 0.0 0.0 0.0 16.28999089631971 0.0 0.0 0.0 34.2284985734139" Properties=species:S:1:pos:R:3:initial_magmoms:R:1 pbc="T T T"
Si       1.05010227       1.64890638      -1.26426453       0.00000000
Si      -1.85100012      -0.24975828      -1.61380615       0.00000000
Si       0.11386710       1.30323258       2.09655596       0.00000000
Si      -1.68194250      -1.94243589       1.77228419       0.00000000
Si      -3.12642567      -0.81427194       0.34642683       0.00000000
Si      -0.65712231      -0.46403694       3.36910414       0.00000000
Si       2.02896837      -1.80744066      -2.29714428       0.00000000
Si       1.74042360       0.37646190      -3.12965029       0.00000000
Si      -0.87296481      -3.78876078       0.20181134       0.00000000
Si      -0.22929804       3.56992092      -1.69311363       0.00000000
