10
Lattice="16.28999089631971 0.0 0.0 0.0 16.28999089631971 0.0 0.0 0.0 34.2284985734139" Properties=species:S:1:pos:R:3:initial_magmoms:R:1 pbc="T T T"
Si      -1.22400291       1.61132535      -1.32491746       0.00000000
Si       1.31380479       1.33240797       1.59685760       0.00000000
Si      -1.40095140      -1.44895152       1.50948588       0.00000000
Si       1.90205298       0.76782915      -2.33349497       0.00000000
Si       1.04420529      -1.43492094      -2.57744161       0.00000000
Si      -2.74959629       2.65155588       0.24110568       0.00000000
Si       0.69494769       2.93575122      -2.36388989       0.00000000
Si       2.86479198       2.75002893       0.53126429       0.00000000
Si      -0.01936881       2.61957861       3.08285789       0.00000000
Si      -1.95978474       0.80104446      -3.48733830       0.00000000
