10
Lattice="16.28999089631971 0.0 0.0 0.0 16.28999089631971 0.0 0.0 0.0 34.2284985734139" Properties=species:S:1:pos:R:3:initial_magmoms:R:1 pbc="T T T"
Si      -1.35264015       1.35389764      -1.35757147       0.00000000
Si      -1.35597960      -1.35691215       1.35685267       0.00000000
Si       1.36023129      -1.35455010      -1.35787953       0.00000000
Si       1.35905841       1.35744072       1.35633924       0.00000000
Si      -2.69638596      -0.00333575      -2.72148206       0.00000000
Si       2.70431919       0.00019146      -2.71971245       0.00000000
Si      -2.71327869       0.00017616       2.71349997       0.00000000
Si      -2.71197549       2.71570906      -0.00102686       0.00000000
Si       0.00128691      -2.71447188       2.71394494       0.00000000
Si       0.00144981       2.71546471       2.71380803       0.00000000
