10
Lattice="16.28999089631971 0.0 0.0 0.0 16.28999089631971 0.0 0.0 0.0 34.2284985734139" Properties=species:S:1:pos:R:3:initial_magmoms:R:1 pbc="T T T"
Si       1.14339510       1.90789457       0.50730086       0.00000000
Si      -0.87993693      -0.79222342       1.98682854       0.00000000
Si       1.33897284      -1.58437910      -1.02504142       0.00000000
Si      -1.75679505       0.57178877      -1.51314008       0.00000000
Si      -0.63625482       3.12083168       1.41103641       0.00000000
Si       0.51820119      -1.67789999      -3.17900781       0.00000000
Si      -1.75961322      -1.29580175      -2.93711488       0.00000000
Si      -2.49983082      -2.36278046       1.27706600       0.00000000
Si       2.07909270       2.67473003      -1.50424067       0.00000000
Si       0.35394912      -3.71667494      -0.94864337       0.00000000
