10
Lattice="16.28999089631971 0.0 0.0 0.0 16.28999089631971 0.0 0.0 0.0 34.2284985734139" Properties=species:S:1:pos:R:3:initial_magmoms:R:1 pbc="T T T"
Si      -0.79456104      -0.85121766      -2.01075427       0.00000000
Si      -0.93569760      -0.76683546       2.01154153       0.00000000
Si       2.19962241      -0.81860508       0.06565030       0.00000000
Si      -0.57239802       2.28952692      -0.03573457       0.00000000
Si      -3.07661085      -0.46887507      -1.52156030       0.00000000
Si       1.36104579       1.49877774       2.90377630       0.00000000
Si       3.11588604       0.71004852       1.58786094       0.00000000
Si      -0.28447227       2.95041222       2.12634398       0.00000000
Si      -2.07909270      -2.67473003       1.50424067       0.00000000
Si       0.00030951       0.73246356      -3.64181160       0.00000000
