10
Lattice="16.28999089631971 0.0 0.0 0.0 16.28999089631971 0.0 0.0 0.0 34.2284985734139" Properties=species:S:1:pos:R:3:initial_magmoms:R:1 pbc="T T T"
Si       1.89936513      -1.41145845      -0.09053443       0.00000000
Si       0.17163144       1.46768013      -1.85686286       0.00000000
Si      -1.79769924      -1.45897964      -0.56983636       0.00000000
Si      -1.43449740      -0.96975673       2.36618320       0.00000000
Si      -3.20331447       0.27867303      -1.32293221       0.00000000
Si      -2.28446073       2.56505598       1.59730801       0.00000000
Si      -2.05143228       2.01748392      -2.46486402       0.00000000
Si       1.61497431       3.26231685      -1.25478323       0.00000000
Si       3.47024241      -0.65225160       1.53559399       0.00000000
Si      -0.11815137      -2.98962944       2.49892139       0.00000000
