10
Lattice="16.28999089631971 0.0 0.0 0.0 16.28999089631971 0.0 0.0 0.0 34.2284985734139" Properties=species:S:1:pos:R:3:initial_magmoms:R:1 pbc="T T T"
Si       1.31634603      -2.01987270       0.13273819       0.00000000
Si      -0.74086920       1.11046975       2.09967996       0.00000000
Si      -1.60443468      -1.61768889      -1.21802180       0.00000000
Si       1.43449740       0.96975673      -2.36618320       0.00000000
Si      -0.36320184      -0.48922291      -2.93601956       0.00000000
Si      -2.19719520       2.65508755       0.95196353       0.00000000
Si      -0.32503437      -3.53870343      -0.78917270       0.00000000
Si      -0.84996333       3.53481271      -0.76887519       0.00000000
Si       2.35118457      -1.94115942       2.39472978       0.00000000
Si       3.33386253      -0.44170172      -2.45671763       0.00000000
