10
Lattice="16.28999089631971 0.0 0.0 0.0 16.28999089631971 0.0 0.0 0.0 34.2284985734139" Properties=species:S:1:pos:R:3:initial_magmoms:R:1 pbc="T T T"
Si       1.35366642       1.35457866       1.35661307       0.00000000
Si       1.35729909      -1.35762489      -1.35688690       0.00000000
Si      -1.35757602       1.35697329      -1.35726341       0.00000000
Si      -1.35852084      -1.35786924       1.35702381       0.00000000
Si       2.71326240       0.00169416       2.71322614       0.00000000
Si      -0.00087966      -2.71389771      -2.71404763       0.00000000
Si       2.71423980       2.71430496       0.00006846       0.00000000
Si       2.71432125      -2.71484253       0.00034229       0.00000000
Si       2.71508688      -0.00063531      -2.71435568       0.00000000
Si       0.00156384       2.71624347       2.71353420       0.00000000
