10
Lattice="16.28999089631971 0.0 0.0 0.0 16.28999089631971 0.0 0.0 0.0 34.2284985734139" Properties=species:S:1:pos:R:3:initial_magmoms:R:1 pbc="T T T"
Si       1.36712196      -1.41866352       1.25440672       0.00000000
Si      -1.33789770      -1.36524861      -1.36671048       0.00000000
Si       1.37984445       1.35076680      -1.36944876       0.00000000
Si      -1.46272797       1.32502860       1.43129970       0.00000000
Si      -0.06227667       2.46358557       2.90901326       0.00000000
Si      -2.69145009      -2.71168227      -0.00171143       0.00000000
Si      -2.69731449       2.71311579      -0.00171143       0.00000000
Si       2.72262915       2.69118945      -0.00393628       0.00000000
Si      -2.69449632      -0.00902466      -2.72527458       0.00000000
Si       0.01873350       2.70503595      -2.72571955       0.00000000
