10
Lattice="16.28999089631971 0.0 0.0 0.0 16.28999089631971 0.0 0.0 0.0 34.2284985734139" Properties=species:S:1:pos:R:3:initial_magmoms:R:1 pbc="T T T"
Si      -0.21377367      -2.18685105       0.79536807       0.00000000
Si      -1.19871594       1.33130025       1.55951972       0.00000000
Si       1.98016353       0.82267758       1.13546262       0.00000000
Si      -1.27900935       0.24260697      -2.13260780       0.00000000
Si      -3.01291695      -0.24744510       1.71074131       0.00000000
Si       2.45242692       2.61908991      -0.31117145       0.00000000
Si       0.62729532       1.71380574       3.17134062       0.00000000
Si      -2.47865382      -2.50944192       1.22900916       0.00000000
Si       0.57839274      -2.16178074       3.00837865       0.00000000
Si      -1.48726071       3.51520281       0.72701372       0.00000000
