10
Lattice="16.28999089631971 0.0 0.0 0.0 16.28999089631971 0.0 0.0 0.0 34.2284985734139" Properties=species:S:1:pos:R:3:initial_magmoms:R:1 pbc="T T T"
Si      -1.34928441      -1.34581464      -1.37485687       0.00000000
Si       1.36920708       1.36631330      -1.36958568       0.00000000
Si      -1.46235330       1.23711147       1.41593109       0.00000000
Si       1.22497542      -1.54316799       1.40555985       0.00000000
Si       0.12196323       2.11720545       2.86112757       0.00000000
Si      -2.70897813      -2.69847108      -0.00985781       0.00000000
Si      -2.68724727       2.72052189      -0.01375986       0.00000000
Si       2.71096551      -2.72039742      -0.01208267       0.00000000
Si      -2.70642060       0.00834048      -2.73297600       0.00000000
Si       0.00706986      -2.70655092      -2.73386594       0.00000000
