10
Lattice="16.28999089631971 0.0 0.0 0.0 16.28999089631971 0.0 0.0 0.0 34.2284985734139" Properties=species:S:1:pos:R:3:initial_magmoms:R:1 pbc="T T T"
Si       1.25270100       1.37992494      -1.31550462       0.00000000
Si       0.82077165       0.09352089       2.15396639       0.00000000
Si      -0.07944633      -2.31021522      -0.13044488       0.00000000
Si      -2.27781441       0.38209824       0.24189293       0.00000000
Si      -0.16425207      -2.03877495       2.23036444       0.00000000
Si      -2.34305586       0.60967770      -2.09478528       0.00000000
Si       0.76633047       3.50141237      -0.33598713       0.00000000
Si      -2.27499624       2.24968877       1.66586773       0.00000000
Si      -0.26399574       1.94093136      -3.04958978       0.00000000
Si      -0.51820119       1.67789999       3.17900781       0.00000000
