10
Lattice="16.28999089631971 0.0 0.0 0.0 16.28999089631971 0.0 0.0 0.0 34.2284985734139" Properties=species:S:1:pos:R:3:initial_magmoms:R:1 pbc="T T T"
Si       0.23364747      -1.41540552       1.87014352       0.00000000
Si       1.62422703       1.63510290       0.54652674       0.00000000
Si       0.45198234      -1.19203704      -2.04231297       0.00000000
Si      -2.26473354       0.70898967       0.41016033       0.00000000
Si      -3.20254884      -1.55820366       0.68179784       0.00000000
Si       0.69087519       0.08563653       3.67545823       0.00000000
Si       1.05301818       2.26935568       2.81245461       0.00000000
Si      -1.91555739      -2.10009051       2.61461378       0.00000000
Si       1.87102053       3.17297339      -1.22644202       0.00000000
Si       0.72526338       0.32790141      -3.86145600       0.00000000
