10
Lattice="16.28999089631971 0.0 0.0 0.0 16.28999089631971 0.0 0.0 0.0 34.2284985734139" Properties=species:S:1:pos:R:3:initial_magmoms:R:1 pbc="T T T"
Si       0.36214299       2.18371915      -0.86300362       0.00000000
Si      -0.45722772      -1.50104205      -1.80531471       0.00000000
Si      -1.65537351       0.60554817       1.72645220       0.00000000
Si       0.44118207      -1.78627995       1.73384556       0.00000000
Si       2.70876636      -1.28523213       1.30222396       0.00000000
Si      -3.29675391      -0.91328256       0.80454131       0.00000000
Si      -2.60643258      -2.18572704      -1.06084445       0.00000000
Si       1.93302027       2.94292601       0.76312480       0.00000000
Si       0.93335184       1.54946637      -3.12893149       0.00000000
Si      -0.69087519      -0.08563653      -3.67545823       0.00000000
