10
Lattice="16.28999089631971 0.0 0.0 0.0 16.28999089631971 0.0 0.0 0.0 34.2284985734139" Properties=species:S:1:pos:R:3:initial_magmoms:R:1 pbc="T T T"
Si      -1.35723393      -1.35680224       1.35740033       0.00000000
Si       1.35624024      -1.35694723      -1.36013861       0.00000000
Si       1.35772263       1.35876519       1.35712650       0.00000000
Si      -1.35506736       1.35746199      -1.36202118       0.00000000
Si       2.71471635      -2.71354537       0.00041074       0.00000000
Si       0.00035838      -2.71392617       2.71510871       0.00000000
Si      -2.71484253       0.00122175       2.71486911       0.00000000
Si       2.71577144       0.00086337       2.71469797       0.00000000
Si      -2.71629234      -2.71424296       0.00106108       0.00000000
Si      -0.00008145       2.71645524       2.71497180       0.00000000
