10
Lattice="16.28999089631971 0.0 0.0 0.0 16.28999089631971 0.0 0.0 0.0 34.2284985734139" Properties=species:S:1:pos:R:3:initial_magmoms:R:1 pbc="T T T"
Si       1.35751086      -1.35738543      -1.36369837       0.00000000
Si      -1.35842310       1.35834165      -1.36325340       0.00000000
Si       1.34273583       1.35892809       1.39474364       0.00000000
Si      -1.34410419      -1.36424189       1.38984896       0.00000000
Si       2.71150254      -2.71341455      -0.00506582       0.00000000
Si      -2.71235016      -2.71583757       0.00051343       0.00000000
Si      -2.71241532       2.71635750      -0.00342285       0.00000000
Si       2.72064177       2.71375110      -0.00266982       0.00000000
Si      -0.00017919      -2.71444745      -2.72055104       0.00000000
Si      -2.71538010       0.00070047      -2.72079064       0.00000000
