10
Lattice="16.28999089631971 0.0 0.0 0.0 16.28999089631971 0.0 0.0 0.0 34.2284985734139" Properties=species:S:1:pos:R:3:initial_magmoms:R:1 pbc="T T T"
Si       1.34410419       1.36424189      -1.38984896       0.00000000
Si      -1.36824597      -1.35159568      -1.38933553       0.00000000
Si      -1.50032529       1.20005498       1.45943554       0.00000000
Si       1.41151221      -1.48509807       1.53662085       0.00000000
Si       2.68684002       2.72316998       0.00489468       0.00000000
Si       2.70769122      -2.71238667      -0.02392573       0.00000000
Si      -2.73307104       2.70130880      -0.02467876       0.00000000
Si       2.70161505       0.00685646      -2.75354734       0.00000000
Si      -2.73745305      -2.71790898      -0.01974985       0.00000000
Si      -0.01488906      -2.70921012      -2.75375271       0.00000000
