10
Lattice="16.28999089631971 0.0 0.0 0.0 16.28999089631971 0.0 0.0 0.0 34.2284985734139" Properties=species:S:1:pos:R:3:initial_magmoms:R:1 pbc="T T T"
Si       1.14251774       1.39703040       1.65043067       0.00000000
Si       1.39538089      -1.28437202      -1.55657607       0.00000000
Si      -1.33876107       1.41701823      -1.53364296       0.00000000
Si      -0.57068757      -2.07107802       1.31043880       0.00000000
Si       1.32575092      -0.53685324       3.27898931       0.00000000
Si       2.77017056       2.61788445       0.11480245       0.00000000
Si      -2.61408888      -2.79124982      -0.00191680       0.00000000
Si       2.71121705      -2.74355270      -0.22864650       0.00000000
Si       0.03000564      -2.65532441      -2.93345242       0.00000000
Si      -2.68149690       0.05809014      -2.92838660       0.00000000
