10
Lattice="16.28999089631971 0.0 0.0 0.0 16.28999089631971 0.0 0.0 0.0 34.2284985734139" Properties=species:S:1:pos:R:3:initial_magmoms:R:1 pbc="T T T"
Si      -0.04719213       0.06393499       2.37559604       0.00000000
Si       1.78768645      -1.75413068      -0.11487091       0.00000000
Si       0.57068757       2.07107802      -1.31043880       0.00000000
Si      -2.04340131      -0.72017180      -1.31235560       0.00000000
Si       1.89643849       1.53422478       1.96855051       0.00000000
Si      -0.74722230      -1.94746040      -2.87290218       0.00000000
Si       1.96606846       0.78670600      -2.86701487       0.00000000
Si       0.62115238      -3.30642107      -1.44800321       0.00000000
Si       3.28190462      -0.67247468      -1.53908530       0.00000000
Si      -2.22532803       0.85901894       2.91668045       0.00000000
