10
Lattice="16.28999089631971 0.0 0.0 0.0 16.28999089631971 0.0 0.0 0.0 34.2284985734139" Properties=species:S:1:pos:R:3:initial_magmoms:R:1 pbc="T T T"
Si       2.29636872      -0.37338081       0.06349390       0.00000000
Si       0.24679350       1.53787048      -1.77296876       0.00000000
Si      -1.62422703      -1.63510290      -0.54652674       0.00000000
Si      -0.57120885       0.63425278       2.26592787       0.00000000
Si       2.90581020       1.86326323       0.43131355       0.00000000
Si      -1.39057956      -3.05050842       1.32361678       0.00000000
Si      -0.93335184      -1.54946637       3.12893149       0.00000000
Si      -1.72305846       2.75641135      -1.62551231       0.00000000
Si      -2.47057398       2.04571123       2.35646230       0.00000000
Si      -3.88896057      -0.92611323      -0.13636641       0.00000000
