10
Lattice="16.28999089631971 0.0 0.0 0.0 16.28999089631971 0.0 0.0 0.0 34.2284985734139" Properties=species:S:1:pos:R:3:initial_magmoms:R:1 pbc="T T T"
Si       1.35702216      -1.35721764       1.35722918       0.00000000
Si      -1.35817875      -1.35627282      -1.35716073       0.00000000
Si      -1.35729909       1.35762489       1.35688690       0.00000000
Si       1.35778779       1.35698958      -1.35746878       0.00000000
Si      -0.00363267       2.71220355       2.71349997       0.00000000
Si      -2.71339272      -0.00091224      -2.71401340       0.00000000
Si       2.71451673       2.71466334      -0.00010269       0.00000000
Si       2.71445157       0.00027693       2.71497180       0.00000000
Si      -2.71487511       2.71459818      -0.00037651       0.00000000
Si      -0.00078192      -2.71480995       2.71466374       0.00000000
