10
Lattice="16.28999089631971 0.0 0.0 0.0 16.28999089631971 0.0 0.0 0.0 34.2284985734139" Properties=species:S:1:pos:R:3:initial_magmoms:R:1 pbc="T T T"
Si      -0.60515721      -1.85207526      -1.41089950       0.00000000
Si      -1.62036630       1.83443319      -0.18911256       0.00000000
Si      -0.08109162      -1.89425007       1.57666821       0.00000000
Si       1.97314254       0.53116803      -1.51669985       0.00000000
Si      -1.74658122      -0.54411858      -2.91880262       0.00000000
Si       2.35203265      -1.69510482       1.98587014       0.00000000
Si      -3.10919085       0.75554649      -1.61876929       0.00000000
Si      -2.44283211      -2.79593415      -0.07964976       0.00000000
Si       0.96946677       2.16508761      -2.87413440       0.00000000
Si      -0.45385569       3.45892086      -1.47107323       0.00000000
