10
Lattice="16.28999089631971 0.0 0.0 0.0 16.28999089631971 0.0 0.0 0.0 34.2284985734139" Properties=species:S:1:pos:R:3:initial_magmoms:R:1 pbc="T T T"
Si       0.11012040       1.89734517       1.38245560       0.00000000
Si       0.91388529      -1.93036500       1.00909093       0.00000000
Si      -2.31384789      -0.46936377      -0.55484427       0.00000000
Si       1.29266037       0.46659447      -2.04734456       0.00000000
Si      -2.14563735       2.60827335       1.44153402       0.00000000
Si       0.87614136      -3.53134783      -0.70363564       0.00000000
Si      -0.11453499      -2.02043241       3.15261762       0.00000000
Si      -3.38035419       1.63206252      -0.28673229       0.00000000
Si       1.27881387       1.30601817       3.31886553       0.00000000
Si      -3.10871844      -2.05304499       1.07621305       0.00000000
