10
Lattice="16.28999089631971 0.0 0.0 0.0 16.28999089631971 0.0 0.0 0.0 34.2284985734139" Properties=species:S:1:pos:R:3:initial_magmoms:R:1 pbc="T T T"
Si       1.17146181       1.95779736       0.47598177       0.00000000
Si       1.14519744      -1.66988790      -1.20094177       0.00000000
Si      -1.18917000      -1.19179269       1.64817158       0.00000000
Si      -1.76565681       1.14059322      -1.13025988       0.00000000
Si      -2.17036557      -0.73179567      -2.47944537       0.00000000
Si      -0.18090045      -1.85508891      -3.12376298       0.00000000
Si       3.28511375      -0.76509243      -1.48808481       0.00000000
Si       0.91003500      -3.57119154       0.17148487       0.00000000
Si      -3.33482364      -0.33992343       1.71169971       0.00000000
Si       1.65785841       3.02073615      -1.55729487       0.00000000
