10
Lattice="16.28999089631971 0.0 0.0 0.0 16.28999089631971 0.0 0.0 0.0 34.2284985734139" Properties=species:S:1:pos:R:3:initial_magmoms:R:1 pbc="T T T"
Si      -1.35366642      -1.35457866      -1.35661307       0.00000000
Si       1.35959598      -1.35288450       1.35661307       0.00000000
Si      -1.35210258       1.36166481       1.35692113       0.00000000
Si       1.36057338       1.35972630      -1.35654461       0.00000000
Si      -0.00221544      -2.70743058       2.68074328       0.00000000
Si      -0.00931788       2.70208746       2.72243361       0.00000000
Si      -2.71218726      -2.71244790       0.00041074       0.00000000
Si      -2.71124244       0.00239463      -2.71387648       0.00000000
Si       0.00363267      -2.71220355      -2.71349997       0.00000000
Si      -2.71321353       2.71593396       0.00065034       0.00000000
