10
Lattice="16.28999089631971 0.0 0.0 0.0 16.28999089631971 0.0 0.0 0.0 34.2284985734139" Properties=species:S:1:pos:R:3:initial_magmoms:R:1 pbc="T T T"
Si      -1.48882455      -1.07888670      -1.42965673       0.00000000
Si       1.16651061       1.62448767      -1.28196067       0.00000000
Si      -1.96362918       0.72930330       1.18985173       0.00000000
Si       1.62036630      -1.83443319       0.18911256       0.00000000
Si      -0.12621492      -2.37855177      -2.72969006       0.00000000
Si      -2.53794942      -2.72679939      -0.08594781       0.00000000
Si       2.58983307       0.33065442      -2.68502184       0.00000000
Si      -3.32159616      -1.20731706       1.60576245       0.00000000
Si      -2.85594651       0.33977682      -2.68406344       0.00000000
Si       0.77268357       1.45929078       3.60046355       0.00000000
