10
Lattice="16.28999089631971 0.0 0.0 0.0 16.28999089631971 0.0 0.0 0.0 34.2284985734139" Properties=species:S:1:pos:R:3:initial_magmoms:R:1 pbc="T T T"
Si       1.61083665      -1.61964954      -0.45986014       0.00000000
Si      -2.17904814      -0.83310318       0.41505501       0.00000000
Si      -0.08394237       1.08949149      -2.12607015       0.00000000
Si       0.70332075       1.05712326       2.12641243       0.00000000
Si       3.45929553      -0.15964200      -0.51962313       0.00000000
Si      -2.91208185       1.00942614       1.70078082       0.00000000
Si      -1.14999255       2.46115836       2.36125429       0.00000000
Si       0.22612149       3.34880046      -1.49068617       0.00000000
Si       0.42210648      -0.78058422      -3.62846248       0.00000000
Si       1.57955985      -3.25674567       1.25225032       0.00000000
