10
Lattice="16.28999089631971 0.0 0.0 0.0 16.28999089631971 0.0 0.0 0.0 34.2284985734139" Properties=species:S:1:pos:R:3:initial_magmoms:R:1 pbc="T T T"
Si       2.27486592      -0.57024774       0.42734304       0.00000000
Si      -0.20746944       1.61872101      -1.74647589       0.00000000
Si      -0.88705566      -2.07752886      -0.87111578       0.00000000
Si      -0.48863484       1.21858974       2.10710755       0.00000000
Si       3.35109802       1.48129857      -0.26109513       0.00000000
Si       1.84003695       2.84050359      -1.50550712       0.00000000
Si      -0.96089823      -0.57782259       3.55374162       0.00000000
Si       0.66876966      -2.69514792      -2.62063800       0.00000000
Si      -2.06078274       3.02275611      -1.51163403       0.00000000
Si      -3.08439747      -1.86887025      -1.68982769       0.00000000
