10
Lattice="16.28999089631971 0.0 0.0 0.0 16.28999089631971 0.0 0.0 0.0 34.2284985734139" Properties=species:S:1:pos:R:3:initial_magmoms:R:1 pbc="T T T"
Si      -1.85645727      -0.90818379      -1.21425667       0.00000000
Si       1.06753257       1.86779511      -1.06344582       0.00000000
Si       1.79176968      -1.66796568      -0.00718799       0.00000000
Si      -0.67194621      -0.17133822       2.46219419       0.00000000
Si       1.29065670      -1.80592569       2.32740229       0.00000000
Si      -0.37046718      -2.08541322      -2.63189918       0.00000000
Si       2.36371158       0.64050651      -2.62399240       0.00000000
Si       0.92936079      -3.49189182      -1.22586013       0.00000000
Si      -3.15537300      -2.31301710       0.28105036       0.00000000
Si       3.73208626      -0.71845416      -1.19909343       0.00000000
