10
Lattice="16.28999089631971 0.0 0.0 0.0 16.28999089631971 0.0 0.0 0.0 34.2284985734139" Properties=species:S:1:pos:R:3:initial_magmoms:R:1 pbc="T T T"
Si       0.09839160       2.16860625       0.84914107       0.00000000
Si       0.85292389      -1.64797785       1.47839814       0.00000000
Si      -2.23650297      -0.26707455      -0.76411743       0.00000000
Si       2.40569810       2.22301485       1.25314026       0.00000000
Si      -1.73538999      -0.12911454      -3.09870771       0.00000000
Si      -2.99162592      -2.11823757       0.56504437       0.00000000
Si       0.19271064      -3.80969343       0.79718218       0.00000000
Si      -0.87057018       2.43379116       3.00197792       0.00000000
Si       0.04556313      -1.49729535       3.67388372       0.00000000
Si       3.25681802       2.08503855      -1.03329049       0.00000000
