10
Lattice="16.28999089631971 0.0 0.0 0.0 16.28999089631971 0.0 0.0 0.0 34.2284985734139" Properties=species:S:1:pos:R:3:initial_magmoms:R:1 pbc="T T T"
Si       0.31006386       2.25930897       0.63538397       0.00000000
Si      -2.06847162       0.23827383      -1.16407766       0.00000000
Si       0.08394237      -1.08949149       2.12607015       0.00000000
Si       0.50604885      -1.87007571      -1.50239233       0.00000000
Si       1.26117180      -0.01891269      -2.83155413       0.00000000
Si      -1.87787862      -2.01544767      -1.61243701       0.00000000
Si      -0.70143111       1.61567478      -2.69676222       0.00000000
Si       1.69477902      -2.70914103       1.66621001       0.00000000
Si      -0.52173612       3.47952771      -1.27244515       0.00000000
Si      -2.09510577      -1.92259467       2.54112515       0.00000000
