10
Lattice="16.28999089631971 0.0 0.0 0.0 16.28999089631971 0.0 0.0 0.0 34.2284985734139" Properties=species:S:1:pos:R:3:initial_magmoms:R:1 pbc="T T T"
Si       1.87803242      -0.44996238      -1.36773734       0.00000000
Si       0.46219617       0.60806727       2.28895877       0.00000000
Si      -0.65072034      -2.37260592      -0.42724036       0.00000000
Si      -1.42646643       1.85555222      -0.96633951       0.00000000
Si      -1.21852458       2.44881773       2.46830094       0.00000000
Si       0.95496867      -1.40810760      -3.34806246       0.00000000
Si       3.15394667      -2.06925354      -0.04685884       0.00000000
Si       1.27196525      -3.56304654       0.39034202       0.00000000
Si      -0.34007004      -1.33775109       3.56244392       0.00000000
Si      -2.28325527      -2.15826210       2.23525912       0.00000000
