10
Lattice="16.28999089631971 0.0 0.0 0.0 16.28999089631971 0.0 0.0 0.0 34.2284985734139" Properties=species:S:1:pos:R:3:initial_magmoms:R:1 pbc="T T T"
Si       1.33517727       1.34267067       1.36972259       0.00000000
Si      -1.35804843       1.35161388      -1.35863255       0.00000000
Si       1.35526284      -1.36273995      -1.35811913       0.00000000
Si      -1.35548601      -1.38047976       1.39820072       0.00000000
Si       2.59577892      -0.13027113       2.75453996       0.00000000
Si      -2.71388861       2.70969489       0.00256714       0.00000000
Si       0.00016290       2.71080261      -2.71575905       0.00000000
Si       2.71759554       2.71050939       0.00400474       0.00000000
Si      -2.70900161      -2.72113047       0.00236177       0.00000000
Si       2.71474479      -0.00390960      -2.71555368       0.00000000
