10
Lattice="16.28999089631971 0.0 0.0 0.0 16.28999089631971 0.0 0.0 0.0 34.2284985734139" Properties=species:S:1:pos:R:3:initial_magmoms:R:1 pbc="T T T"
Si       1.73883443      -1.16449065       0.97352750       0.00000000
Si      -2.19895446      -0.22791339       0.81005210       0.00000000
Si       0.66021326       2.16171558       0.68121596       0.00000000
Si       1.06859378      -1.00468575      -1.93243942       0.00000000
Si       3.25204511      -0.58479471      -0.77305107       0.00000000
Si       0.80509000      -3.24806310       0.74929648       0.00000000
Si      -3.18433656       1.69145586      -0.23213781       0.00000000
Si      -1.99560639       0.85239054       2.93646453       0.00000000
Si       0.01537882      -3.29737293      -1.65761866       0.00000000
Si      -0.14714751       2.31239808       2.87670154       0.00000000
