10
Lattice="16.28999089631971 0.0 0.0 0.0 16.28999089631971 0.0 0.0 0.0 34.2284985734139" Properties=species:S:1:pos:R:3:initial_magmoms:R:1 pbc="T T T"
Si      -1.30497561      -1.86922863      -0.08242227       0.00000000
Si      -0.83891871       1.29582063      -1.81541212       0.00000000
Si       2.25740304      -0.44282736       0.73752187       0.00000000
Si      -2.38550597       0.00643455       1.04965172       0.00000000
Si      -1.35254241       1.78676865       2.26917958       0.00000000
Si       0.47622186       0.86990229       3.42565851       0.00000000
Si       2.57482998       1.31693247       2.27876357       0.00000000
Si       3.37950711      -0.81335970      -1.38628920       0.00000000
Si      -2.04330357      -2.25349344      -2.19836078       0.00000000
Si      -0.62307621       3.52553067      -1.13388811       0.00000000
