10
Lattice="16.28999089631971 0.0 0.0 0.0 16.28999089631971 0.0 0.0 0.0 34.2284985734139" Properties=species:S:1:pos:R:3:initial_magmoms:R:1 pbc="T T T"
Si      -2.16436270       0.10593387      -0.99913043       0.00000000
Si       1.04738184      -1.92124260      -1.00313517       0.00000000
Si      -0.83178369      -0.09081675       2.27883202       0.00000000
Si       1.18376172       2.03234040      -0.65640028       0.00000000
Si      -0.64500255       2.94920676      -1.81287921       0.00000000
Si      -1.67796611       1.16887266      -3.03240707       0.00000000
Si       3.17220057      -1.05262722      -1.72374815       0.00000000
Si      -3.49538507       1.41362991       0.44260896       0.00000000
Si       0.13204674      -2.11299219       3.20046909       0.00000000
Si       1.42641756       3.38838516       1.18468323       0.00000000
