10
Lattice="16.28999089631971 0.0 0.0 0.0 16.28999089631971 0.0 0.0 0.0 34.2284985734139" Properties=species:S:1:pos:R:3:initial_magmoms:R:1 pbc="T T T"
Si      -1.35553955       1.35506850       1.36089164       0.00000000
Si       1.36033229      -1.36202319       1.36054935       0.00000000
Si      -1.34785581      -1.36324494      -1.38458119       0.00000000
Si       1.35663446       1.34944101      -1.39504143       0.00000000
Si      -2.71401567       2.71166665       0.00034229       0.00000000
Si       0.00217309       2.71268803       2.71812082       0.00000000
Si      -2.71298940      -0.00211770       2.71815505       0.00000000
Si       2.71940699       2.71260495      -0.00225908       0.00000000
Si      -2.71476501      -2.71899648       0.00188257       0.00000000
Si       2.71781057      -2.71749780       0.00790679       0.00000000
