10
Lattice="16.28999089631971 0.0 0.0 0.0 16.28999089631971 0.0 0.0 0.0 34.2284985734139" Properties=species:S:1:pos:R:3:initial_magmoms:R:1 pbc="T T T"
Si       1.87698267       0.74583506       1.14723723       0.00000000
Si       1.38784284      -1.29740076      -1.34860360       0.00000000
Si      -1.49421817      -1.08165600       1.42421439       0.00000000
Si      -1.31583615       1.45918068      -1.32792957       0.00000000
Si       0.55871442       0.95678730       3.06523222       0.00000000
Si       0.39113919      -1.36930482       3.34840474       0.00000000
Si      -3.28190462       0.67247468       1.53908530       0.00000000
Si      -2.66075224      -2.63394639       0.09108209       0.00000000
Si       0.03785796      -2.62695798      -2.70521667       0.00000000
Si      -2.68121140       0.08822828      -2.70480593       0.00000000
