10
Lattice="16.28999089631971 0.0 0.0 0.0 16.28999089631971 0.0 0.0 0.0 34.2284985734139" Properties=species:S:1:pos:R:3:initial_magmoms:R:1 pbc="T T T"
Si       0.94607433      -1.41817482       1.58204209       0.00000000
Si      -2.30730650      -0.05440860      -0.40399919       0.00000000
Si       0.65044341       2.03285746       1.01579972       0.00000000
Si       0.85111992      -0.13797630      -2.28643075       0.00000000
Si      -2.40569810      -2.22301485      -1.25314026       0.00000000
Si       1.01869515       2.18811582      -2.56960328       0.00000000
Si       2.27486592       2.64001183      -0.69610536       0.00000000
Si      -3.27626828       0.21077631       1.74883765       0.00000000
Si       3.19759668      -0.93802707       1.79028839       0.00000000
Si       0.73023183      -3.64788486       0.90051807       0.00000000
