10
Lattice="16.28999089631971 0.0 0.0 0.0 16.28999089631971 0.0 0.0 0.0 34.2284985734139" Properties=species:S:1:pos:R:3:initial_magmoms:R:1 pbc="T T T"
Si       0.87239466      -0.24053814      -2.14766834       0.00000000
Si       0.14292846      -1.97930016       1.25539934       0.00000000
Si      -2.31128126      -0.24710301      -0.57267733       0.00000000
Si       1.10682405       1.76704146       1.23612869       0.00000000
Si      -3.14228303      -0.10412568       1.57803735       0.00000000
Si       0.57220254       3.48728079      -0.29457062       0.00000000
Si      -1.63122196      -1.46333070       2.82244934       0.00000000
Si       3.12391701       0.23960961      -1.93942204       0.00000000
Si      -2.43381464      -2.54267352      -1.30896697       0.00000000
Si       0.65655216      -2.47024818      -2.82919236       0.00000000
