10
Lattice="10.86 0.0 0.0 0.0 10.86 0.0 0.0 0.0 10.86" Properties=species:S:1:pos:R:3:initial_magmoms:R:1 pbc="T T T"
Si       1.35377502      -1.42602660      -1.15846878       0.00000000
Si       1.35377502       1.28897340       1.55653122       0.00000000
Si      -1.23610692       1.62519900      -1.38382464       0.00000000
Si      -1.36122498      -1.42602660       1.55653122       0.00000000
Si      -2.76764928      -0.22089240      -2.42650410       0.00000000
Si       2.60658462      -0.01304286      -2.63044404       0.00000000
Si      -0.00372498      -2.78352660      -2.51596878       0.00000000
Si      -2.92739988       2.53697202      -0.13543506       0.00000000
Si       2.95620060       2.49393384       0.35953116       0.00000000
Si       2.71127502      -2.78352660       0.19903122       0.00000000
