10
Lattice="10.86 0.0 0.0 0.0 10.86 0.0 0.0 0.0 10.86" Properties=species:S:1:pos:R:3:initial_magmoms:R:1 pbc="T T T"
Si      -1.29887772       1.26162792      -1.14683772       0.00000000
Si       1.41612228       1.26162792       1.56816228       0.00000000
Si       1.62440622      -1.64203200      -0.85284666       0.00000000
Si      -1.29887772      -1.45337208       1.56816228       0.00000000
Si       0.05862228       2.61912792      -2.50433772       0.00000000
Si      -2.65637772      -0.09587208      -2.50433772       0.00000000
Si      -2.65637772       2.61912792       0.21066228       0.00000000
Si       2.73219138      -0.10848054      -2.61687990       0.00000000
Si       2.77362228       2.61912792       0.21066228       0.00000000
Si      -0.02583594      -2.82306786      -2.59214082       0.00000000
