10
Lattice="16.28999089631971 0.0 0.0 0.0 16.28999089631971 0.0 0.0 0.0 34.383488856416385" Properties=species:S:1:pos:R:3:initial_magmoms:R:1 pbc="T T T"
Si      -1.34337114      -1.34184451       1.34986558       0.00000000
Si      -1.52678025       1.13773525      -1.36484304       0.00000000
Si       1.35943308      -1.31511262      -1.40275429       0.00000000
Si       1.37156913       1.37437520       1.34085710       0.00000000
Si       0.26555958       2.13951487      -2.56262314       0.00000000
Si       2.21863284       0.64920141      -2.55764304       0.00000000
Si      -2.70795186      -2.69218777      -0.01380498       0.00000000
Si      -2.69892720       0.01411099       2.70467895       0.00000000
Si       0.01124010      -2.70033277       2.70512594       0.00000000
Si      -2.70440064       2.72846353      -0.02783001       0.00000000
