10
Lattice="16.28999089631971 0.0 0.0 0.0 16.28999089631971 0.0 0.0 0.0 34.383488856416385" Properties=species:S:1:pos:R:3:initial_magmoms:R:1 pbc="T T T"
Si       0.61432848      -1.08216913       1.97602021       0.00000000
Si       1.83360240      -0.48210255      -1.41271520       0.00000000
Si      -2.06597925      -1.03706538      -0.66470198       0.00000000
Si      -0.00363267       2.33150625       0.76138840       0.00000000
Si       3.00669417       1.53694521      -0.94925989       0.00000000
Si      -0.58078737       0.26733519       3.51970219       0.00000000
Si      -2.66688477       0.86104053       2.43531511       0.00000000
Si      -3.15076293       0.64782072      -1.89270897       0.00000000
Si      -3.40832086      -1.02407085       1.25754242       0.00000000
Si      -2.24670051       2.86852239       1.09714336       0.00000000
