10
Lattice="16.28999089631971 0.0 0.0 0.0 16.28999089631971 0.0 0.0 0.0 34.383488856416385" Properties=species:S:1:pos:R:3:initial_magmoms:R:1 pbc="T T T"
Si       0.99618237       2.04884217      -0.45991380       0.00000000
Si       1.19511585      -1.34950433      -1.54368198       0.00000000
Si       0.04494411      -0.67970025       2.29396451       0.00000000
Si      -2.08609740       0.59370534      -1.08438708       0.00000000
Si       0.57715470       2.06417106      -2.75831378       0.00000000
Si       0.58078737      -0.26733519      -3.51970219       0.00000000
Si       2.46839112      -0.62271783       2.51945155       0.00000000
Si       0.28439082      -3.43768589      -1.29742729       0.00000000
Si      -0.41546016      -2.94422921       2.26628578       0.00000000
Si      -3.63721817       0.68400081       0.69647234       0.00000000
