10
Lattice="16.28999089631971 0.0 0.0 0.0 16.28999089631971 0.0 0.0 0.0 34.383488856416385" Properties=species:S:1:pos:R:3:initial_magmoms:R:1 pbc="T T T"
Si       1.34972424       1.34904006       1.38481298       0.00000000
Si      -1.36863693      -1.36451556       1.38402216       0.00000000
Si      -1.37451762       1.37068947      -1.44557895       0.00000000
Si       1.45482732      -1.31020470      -1.45067803       0.00000000
Si       2.70304857       2.69793351      -0.01655222       0.00000000
Si      -2.73426021       2.69392617       0.02163754       0.00000000
Si       2.70542691      -2.73398328       0.01176604       0.00000000
Si      -2.72248254      -2.71951776       0.01087894       0.00000000
Si       2.70461241      -0.00695583       2.74560908       0.00000000
Si      -0.01009980       2.70542691       2.74708757       0.00000000
