10
Lattice="16.28999089631971 0.0 0.0 0.0 16.28999089631971 0.0 0.0 0.0 34.383488856416385" Properties=species:S:1:pos:R:3:initial_magmoms:R:1 pbc="T T T"
Si      -1.28576970       1.49551974       1.21160606       0.00000000
Si      -1.37705886      -1.33757190      -1.36055541       0.00000000
Si       1.33608951       1.37886705      -1.36083048       0.00000000
Si       1.40234094      -1.38168522       1.44417611       0.00000000
Si      -2.67579540       0.31275171       2.63099165       0.00000000
Si       2.69068446      -2.69291619      -0.00742684       0.00000000
Si      -0.01800045      -2.69151525      -2.72124836       0.00000000
Si       2.69560404       0.02365308      -2.72011371       0.00000000
Si      -2.72811888      -2.70412371       0.02375900       0.00000000
Si      -0.00011403       2.66261679       2.77155144       0.00000000
