10
Lattice="16.28999089631971 0.0 0.0 0.0 16.28999089631971 0.0 0.0 0.0 34.383488856416385" Properties=species:S:1:pos:R:3:initial_magmoms:R:1 pbc="T T T"
Si      -0.76230684       1.72836900      -1.45957992       0.00000000
Si      -1.81488519      -1.61166744      -0.20300023       0.00000000
Si       0.55941489       0.78666039       2.26896770       0.00000000
Si       1.86199587      -0.85841784      -1.37857237       0.00000000
Si       2.76566733       0.24210198       0.98945421       0.00000000
Si       0.64014813      -2.31593301      -2.78695525       0.00000000
Si      -2.04796251       0.56127195      -3.01952530       0.00000000
Si      -0.82795554      -3.45092247      -1.26579447       0.00000000
Si      -3.43798821      -0.62149608      -1.60013970       0.00000000
Si       3.32944794      -2.07780579       0.07382139       0.00000000
