10
Lattice="16.28999089631971 0.0 0.0 0.0 16.28999089631971 0.0 0.0 0.0 34.383488856416385" Properties=species:S:1:pos:R:3:initial_magmoms:R:1 pbc="T T T"
Si      -1.32507747      -0.14913495       1.90470881       0.00000000
Si       2.04731091      -0.96368382       0.67071909       0.00000000
Si       0.55368081       2.29605921      -0.08258919       0.00000000
Si      -1.22958549      -1.32049998      -1.56706276       0.00000000
Si      -1.10677518      -2.69268813       2.09072359       0.00000000
Si       1.11252555       2.65709448       2.24857828       0.00000000
Si      -3.43531665       0.69872697       1.20139416       0.00000000
Si       2.25443826      -0.66937239       2.97578947       0.00000000
Si      -0.80383005       1.77212394       3.31185388       0.00000000
Si       3.78850014      -0.31162770      -0.73398475       0.00000000
