10
Lattice="16.28999089631971 0.0 0.0 0.0 16.28999089631971 0.0 0.0 0.0 34.383488856416385" Properties=species:S:1:pos:R:3:initial_magmoms:R:1 pbc="T T T"
Si       1.32507747       0.14913495      -1.90470881       0.00000000
Si      -2.11023918       0.84786192      -0.70331466       0.00000000
Si       0.52124742       1.92125889       1.40714507       0.00000000
Si       0.21830229      -2.54355318       0.18601478       0.00000000
Si      -3.28913019      -1.08339903      -0.18993450       0.00000000
Si       0.09549198      -1.17136503      -3.47177158       0.00000000
Si       1.87875828       2.44519416      -1.98729800       0.00000000
Si      -2.04382485      -3.01224906      -0.53304753       0.00000000
Si       3.37238838      -0.81454887      -1.23398972       0.00000000
Si       2.16156897      -0.75129480       2.92823708       0.00000000
