10
Lattice="16.28999089631971 0.0 0.0 0.0 16.28999089631971 0.0 0.0 0.0 34.383488856416385" Properties=species:S:1:pos:R:3:initial_magmoms:R:1 pbc="T T T"
Si      -1.37293749      -1.33718094       1.34728338       0.00000000
Si      -1.35091341       1.35713619      -1.36158692       0.00000000
Si       1.36524861      -1.35979146      -1.35856117       0.00000000
Si       1.38033315       1.35889551       1.39067537       0.00000000
Si       0.09886401      -2.60144784       2.57260846       0.00000000
Si      -2.70690930       2.70980892       0.00010315       0.00000000
Si      -2.70770751      -0.00278559      -2.71602207       0.00000000
Si      -2.71163340      -2.71645524       0.00103151       0.00000000
Si       0.00672777       2.71213839      -2.71667536       0.00000000
Si       0.00682551      -2.71772586      -2.71636590       0.00000000
