10
Lattice="16.28999089631971 0.0 0.0 0.0 16.28999089631971 0.0 0.0 0.0 34.383488856416385" Properties=species:S:1:pos:R:3:initial_magmoms:R:1 pbc="T T T"
Si      -2.28998304      -0.21354561      -0.43835534       0.00000000
Si       0.40544181       2.17864089       0.76558319       0.00000000
Si       1.42017849      -1.70590509       0.76847141       0.00000000
Si       2.04257052      -0.61115193      -1.34037230       0.00000000
Si      -2.84708475       1.47188295       1.16635736       0.00000000
Si       3.33117468       1.21077054      -0.47518008       0.00000000
Si      -1.59832593       3.23595963       0.13547102       0.00000000
Si      -2.91224475      -2.49061068      -0.21991692       0.00000000
Si       2.15728470       3.19529979      -0.35390945       0.00000000
Si      -2.75998212       0.60777990      -2.67211433       0.00000000
