10
Lattice="16.28999089631971 0.0 0.0 0.0 16.28999089631971 0.0 0.0 0.0 34.383488856416385" Properties=species:S:1:pos:R:3:initial_magmoms:R:1 pbc="T T T"
Si       1.25273358      -1.33985250      -1.46191456       0.00000000
Si      -1.34807895      -1.36625859       1.35995714       0.00000000
Si       1.36458072       1.35034326       1.36367056       0.00000000
Si      -1.69657092       1.01398734      -1.28564750       0.00000000
Si      -0.38967309       2.38985703      -2.60954460       0.00000000
Si      -0.53729307      -2.21431599      -2.76556324       0.00000000
Si      -2.48573997      -0.86069844      -2.74018821       0.00000000
Si       2.70795186       2.69218777       0.01380498       0.00000000
Si      -2.70743058      -0.00830790       2.71583640       0.00000000
Si       0.00902466       2.70629876       2.71848393       0.00000000
