10
Lattice="16.28999089631971 0.0 0.0 0.0 16.28999089631971 0.0 0.0 0.0 34.383488856416385" Properties=species:S:1:pos:R:3:initial_magmoms:R:1 pbc="T T T"
Si      -1.25273358       1.33985250       1.46191456       0.00000000
Si      -1.79002665      -0.87446349      -1.30364869       0.00000000
Si       1.56087522       1.26038988      -1.43575012       0.00000000
Si       1.46631177      -1.39242033       1.41724007       0.00000000
Si      -2.61125442      -2.71966437      -0.01178667       0.00000000
Si      -2.94930450       2.35383984       0.17626705       0.00000000
Si      -2.60081253      -0.02640609       2.82187170       0.00000000
Si       2.78508501      -0.40109238      -2.64453673       0.00000000
Si       0.11184714       2.69019576       2.82558512       0.00000000
Si       2.81465136       2.71692765       0.07296524       0.00000000
