10
Lattice="16.28999089631971 0.0 0.0 0.0 16.28999089631971 0.0 0.0 0.0 34.383488856416385" Properties=species:S:1:pos:R:3:initial_magmoms:R:1 pbc="T T T"
Si       1.35764118       1.35500220      -1.35508844       0.00000000
Si       1.35091341      -1.35713619       1.36158692       0.00000000
Si      -1.35599589       1.35267273       1.36169007       0.00000000
Si      -1.35679410      -1.35992178      -1.35443515       0.00000000
Si      -0.02202408      -2.69431713       2.70887030       0.00000000
Si      -2.67734621      -0.00677664       2.72657781       0.00000000
Si       0.00039096       2.71288773      -2.71230865       0.00000000
Si      -2.71209441       2.71389771       0.00178794       0.00000000
Si      -2.71506082      -0.00268785      -2.71206797       0.00000000
Si       2.71480995      -0.00210141      -2.71251495       0.00000000
