10
Lattice="16.28999089631971 0.0 0.0 0.0 16.28999089631971 0.0 0.0 0.0 34.383488856416385" Properties=species:S:1:pos:R:3:initial_magmoms:R:1 pbc="T T T"
Si       0.49870206       2.27110293       0.70469000       0.00000000
Si      -2.21423454      -0.23674257      -1.00901843       0.00000000
Si       1.63805724      -0.80726724      -1.79832624       0.00000000
Si       0.31729662      -0.80938494       2.57216147       0.00000000
Si      -1.52274033       2.51157591      -2.15333596       0.00000000
Si       2.39914233       2.11292703       2.20329520       0.00000000
Si       1.49118660      -2.79391419       2.45089084       0.00000000
Si      -3.98143890      -0.08648361       0.72229435       0.00000000
Si       0.33910893      -2.24160174      -3.37360666       0.00000000
Si       3.65630679      -1.64185281      -0.86625810       0.00000000
