10
Lattice="16.28999089631971 0.0 0.0 0.0 16.28999089631971 0.0 0.0 0.0 34.383488856416385" Properties=species:S:1:pos:R:3:initial_magmoms:R:1 pbc="T T T"
Si       2.25943929       0.53777430      -0.30071816       0.00000000
Si      -0.81982683       2.22321752       0.49780443       0.00000000
Si      -1.28997252      -0.86996745      -1.85626245       0.00000000
Si      -0.35596908      -1.76599890       1.66536521       0.00000000
Si       2.56096719       0.98718282       2.03148081       0.00000000
Si      -2.68947900      -1.54896723       1.62348610       0.00000000
Si      -3.38090968      -0.98359020      -0.62818669       0.00000000
Si      -1.18501605       1.99488059       2.79149387       0.00000000
Si      -0.82406223      -3.21356088      -1.63500458       0.00000000
Si       0.95430078       3.83576462      -0.14723018       0.00000000
