10
Lattice="16.28999089631971 0.0 0.0 0.0 16.28999089631971 0.0 0.0 0.0 34.383488856416385" Properties=species:S:1:pos:R:3:initial_magmoms:R:1 pbc="T T T"
Si      -1.79233983      -1.00177961       1.19778010       0.00000000
Si       1.00370835       1.89558585       1.04926398       0.00000000
Si       1.95307326      -1.49031346       0.00498011       0.00000000
Si      -1.72581147       0.17840808      -1.81134903       0.00000000
Si      -0.26555958      -2.13951487       2.56262314       0.00000000
Si      -1.17245646       2.48287293      -1.95194320       0.00000000
Si       2.16569034      -1.40649652      -2.38228718       0.00000000
Si       0.93845061       3.27290535      -0.97036281       0.00000000
Si       2.47122558       0.60942519       2.52660298       0.00000000
Si      -1.18104129      -1.74617071      -3.10317181       0.00000000
