10
Lattice="16.28999089631971 0.0 0.0 0.0 16.28999089631971 0.0 0.0 0.0 34.383488856416385" Properties=species:S:1:pos:R:3:initial_magmoms:R:1 pbc="T T T"
Si      -1.35669636      -1.35621418       1.35832049       0.00000000
Si       1.35659862      -1.35784969      -1.35790788       0.00000000
Si      -1.35729909       1.35744570      -1.35783912       0.00000000
Si       1.35938421       1.35738054       1.35673884       0.00000000
Si       2.71280628      -0.00161271       2.71334016       0.00000000
Si       0.00210141       2.71552671      -2.71399344       0.00000000
Si       2.71453302      -2.71509399       0.00000000       0.00000000
Si      -2.71471221       0.00032580      -2.71499056       0.00000000
Si       2.71485882       2.71539639       0.00003438       0.00000000
Si      -2.71539639       2.71497285       0.00000000       0.00000000
