10
Lattice="16.28999089631971 0.0 0.0 0.0 16.28999089631971 0.0 0.0 0.0 34.383488856416385" Properties=species:S:1:pos:R:3:initial_magmoms:R:1 pbc="T T T"
Si       1.55112077      -0.09029547      -1.78085942       0.00000000
Si      -2.02214679       1.10240946      -0.53528245       0.00000000
Si       0.98150019       1.23199641       1.84316233       0.00000000
Si      -0.48913120      -2.29017363       0.66951567       0.00000000
Si       0.80968468      -1.97540685      -2.95863210       0.00000000
Si      -1.17500163       3.02119227      -1.75885397       0.00000000
Si      -2.98200246      -0.35942256      -2.14584036       0.00000000
Si       3.63721817      -0.68400081      -0.69647234       0.00000000
Si      -1.55429799      -2.10898648      -2.80339056       0.00000000
Si       2.14818185      -0.45304119       3.18731681       0.00000000
