10
Lattice="16.28999089631971 0.0 0.0 0.0 16.28999089631971 0.0 0.0 0.0 34.383488856416385" Properties=species:S:1:pos:R:3:initial_magmoms:R:1 pbc="T T T"
Si      -1.35547461       1.35830907      -1.35873309       0.00000000
Si       1.35951453      -1.35521397      -1.35928322       0.00000000
Si      -1.33608951      -1.37886705       1.36083048       0.00000000
Si       1.36249560       1.36363590       1.36825732       0.00000000
Si      -2.62185921       0.11665269       2.57243654       0.00000000
Si       2.71469592       2.71404432       0.00082520       0.00000000
Si      -2.71314837      -2.71643895       0.00027507       0.00000000
Si      -2.71389771       0.00037467      -2.71653782       0.00000000
Si       0.00081450      -2.71440270      -2.71677851       0.00000000
Si       0.00105885       2.71575477      -2.71674412       0.00000000
