10
Lattice="16.28999089631971 0.0 0.0 0.0 16.28999089631971 0.0 0.0 0.0 34.383488856416385" Properties=species:S:1:pos:R:3:initial_magmoms:R:1 pbc="T T T"
Si       1.35702216       1.35540945      -1.35735775       0.00000000
Si      -1.35951453       1.35521397       1.35928322       0.00000000
Si      -1.35870003      -1.35918873      -1.35749528       0.00000000
Si       1.35795069      -1.35997065       1.36010843       0.00000000
Si      -2.69560404      -0.02365308       2.72011371       0.00000000
Si       2.71518462       2.71331127      -0.00044699       0.00000000
Si      -0.00024435       2.71368594      -2.71481865       0.00000000
Si      -2.71498914       2.71352304       0.00055014       0.00000000
Si       2.71381626      -0.00161271      -2.71485303       0.00000000
Si      -2.71360449      -2.71516833      -0.00113466       0.00000000
