10
Lattice="16.28999089631971 0.0 0.0 0.0 16.28999089631971 0.0 0.0 0.0 34.383488856416385" Properties=species:S:1:pos:R:3:initial_magmoms:R:1 pbc="T T T"
Si      -1.35638685       1.35627282       1.36351240       0.00000000
Si       1.35865116      -1.35852084       1.36162130       0.00000000
Si      -1.35384561      -1.35500220      -1.37314322       0.00000000
Si       1.36863693       1.36451556      -1.38402216       0.00000000
Si      -2.71040188       2.71684620       0.00691109       0.00000000
Si      -2.71325100      -2.71751409       0.00429794       0.00000000
Si       2.71836117       2.71355562       0.00079082       0.00000000
Si      -2.71286818      -0.00162900       2.71997617       0.00000000
Si       0.00180819       2.71456560       2.71956357       0.00000000
Si       0.00218286      -2.71580364       2.71897905       0.00000000
