10
Lattice="16.28999089631971 0.0 0.0 0.0 16.28999089631971 0.0 0.0 0.0 34.383488856416385" Properties=species:S:1:pos:R:3:initial_magmoms:R:1 pbc="T T T"
Si       1.35593562      -1.35641943       1.35752967       0.00000000
Si      -1.35663587       1.36057338       1.36148377       0.00000000
Si      -1.34344448      -1.35208629      -1.38715106       0.00000000
Si       1.35940539       1.36251189      -1.37744116       0.00000000
Si      -2.70526631       2.70715365       0.00811451       0.00000000
Si       2.71481484      -2.71114796      -0.00385095       0.00000000
Si      -2.71243391      -2.71497122      -0.00364465       0.00000000
Si       0.00044635      -2.71339761       2.71464673       0.00000000
Si      -2.71360679       0.00234576       2.71540317       0.00000000
Si       2.71543386       0.00171045       2.71468111       0.00000000
