10
Lattice="16.28999089631971 0.0 0.0 0.0 16.28999089631971 0.0 0.0 0.0 34.383488856416385" Properties=species:S:1:pos:R:3:initial_magmoms:R:1 pbc="T T T"
Si      -1.34545626       1.35032697       1.35718583       0.00000000
Si       1.37446875       1.34768799      -1.35250280       0.00000000
Si      -1.32123303      -1.36576989      -1.39312691       0.00000000
Si       1.36914192      -1.36467846       1.35312858       0.00000000
Si       2.36941308      -0.37794429      -2.57149787       0.00000000
Si       0.72749511      -2.23946775      -2.69940108       0.00000000
Si      -2.70459612       2.70888039      -0.00808012       0.00000000
Si      -2.70374904      -0.00658116       2.71265249       0.00000000
Si       0.00965997       2.70775638       2.71289317       0.00000000
Si      -2.69886204      -2.72764647      -0.00763314       0.00000000
