10
Lattice="16.28999089631971 0.0 0.0 0.0 16.28999089631971 0.0 0.0 0.0 34.383488856416385" Properties=species:S:1:pos:R:3:initial_magmoms:R:1 pbc="T T T"
Si      -1.35702216      -1.35540945       1.35735775       0.00000000
Si       1.35679410      -1.35702216      -1.35749528       0.00000000
Si       1.35816246       1.35790182       1.35691076       0.00000000
Si      -1.35726651       1.35827649      -1.35746090       0.00000000
Si       0.00102627       2.71518462      -2.71292755       0.00000000
Si       0.00177561      -2.71404432      -2.71413098       0.00000000
Si       2.71453302      -2.71417464      -0.00010315       0.00000000
Si       2.71487511       2.71494027      -0.00020630       0.00000000
Si      -2.71572219      -2.71459818      -0.00013753       0.00000000
Si      -2.71547784       2.71555929      -0.00010315       0.00000000
