10
Lattice="16.28999089631971 0.0 0.0 0.0 16.28999089631971 0.0 0.0 0.0 34.383488856416385" Properties=species:S:1:pos:R:3:initial_magmoms:R:1 pbc="T T T"
Si      -0.14367780      -0.91546542       2.13824160       0.00000000
Si       0.81243117      -1.82579949      -1.27786308       0.00000000
Si      -2.01824955       0.83458557      -0.93206814       0.00000000
Si       1.53187902      -2.78700723       0.81691777       0.00000000
Si      -0.72368325       2.18388627      -2.56514724       0.00000000
Si       2.11649454      -0.53129835      -2.70629154       0.00000000
Si       0.77465466       3.09508371       2.09141126       0.00000000
Si      -1.24747191      -3.51854226       1.17244324       0.00000000
Si      -3.65630679       1.64185281       0.86625810       0.00000000
Si      -2.16512019      -1.15206138       3.31714894       0.00000000
