10
Lattice="16.28999089631971 0.0 0.0 0.0 16.28999089631971 0.0 0.0 0.0 34.383488856416385" Properties=species:S:1:pos:R:3:initial_magmoms:R:1 pbc="T T T"
Si       0.15721479      -1.32563133       1.95542449       0.00000000
Si      -1.64286279       1.61863956       0.68223757       0.00000000
Si      -0.93089205      -1.54380330      -1.60622558       0.00000000
Si       1.29360519       1.71535329      -1.17240886       0.00000000
Si       1.48708152      -1.45577214      -2.01979041       0.00000000
Si      -2.44652994       1.72999800      -1.56063305       0.00000000
Si      -0.42508755       1.96659396      -2.73954039       0.00000000
Si       2.19923145       1.76070465       2.12507272       0.00000000
Si       1.23657390       3.29514120       0.62237588       0.00000000
Si       0.92294253       0.27275976       3.50711782       0.00000000
