10
Lattice="16.28999089631971 0.0 0.0 0.0 16.28999089631971 0.0 0.0 0.0 34.383488856416385" Properties=species:S:1:pos:R:3:initial_magmoms:R:1 pbc="T T T"
Si      -0.96417252       2.01438882       0.65452446       0.00000000
Si       1.07287569       0.46760445      -2.02914273       0.00000000
Si      -1.08294291      -1.97667747      -0.69719439       0.00000000
Si       1.59369957      -0.26881758       1.80702527       0.00000000
Si       0.78131727      -3.12693066       0.16576289       0.00000000
Si       0.85818978      -2.40254694       2.41764199       0.00000000
Si       1.72357974       2.73854448      -1.55922332       0.00000000
Si      -2.90162367       2.09582253      -0.74264939       0.00000000
Si      -1.12738203       1.81713321       2.98662028       0.00000000
Si       0.98223813       3.49153344       0.58658265       0.00000000
