10
Lattice="16.28999089631971 0.0 0.0 0.0 16.28999089631971 0.0 0.0 0.0 34.383488856416385" Properties=species:S:1:pos:R:3:initial_magmoms:R:1 pbc="T T T"
Si      -1.36361961       1.28958156      -1.47075456       0.00000000
Si       1.35690813      -1.41444441      -1.46401539       0.00000000
Si       1.02483648       2.02409766       0.98010190       0.00000000
Si      -1.29456630      -1.34930070       1.63307910       0.00000000
Si       0.72368325      -2.18388627       2.56514724       0.00000000
Si      -2.59351461      -2.78363520       0.05779868       0.00000000
Si      -2.53542447       2.85824407      -0.02547818       0.00000000
Si       0.00273672       2.64159132      -2.84231269       0.00000000
Si       2.84017779      -2.71518462      -0.14114430       0.00000000
Si      -2.71536381      -0.06858090      -2.84485707       0.00000000
