10
Lattice="16.28999089631971 0.0 0.0 0.0 16.28999089631971 0.0 0.0 0.0 34.383488856416385" Properties=species:S:1:pos:R:3:initial_magmoms:R:1 pbc="T T T"
Si      -1.35732841       1.35632169      -1.35649816       0.00000000
Si      -1.35620766      -1.35769005       1.35787350       0.00000000
Si       1.35772263      -1.35785295      -1.35749528       0.00000000
Si       1.35883035       1.35733167       1.35742652       0.00000000
Si      -2.71434710       0.00100998      -2.71069263       0.00000000
Si      -0.00084708       2.71422351      -2.71296194       0.00000000
Si       2.71419093      -0.00057015      -2.71485303       0.00000000
Si      -2.71469833      -2.71500543       0.00030945       0.00000000
Si       2.71513575       2.71469592       0.00068767       0.00000000
Si      -2.71518507       2.71471221       0.00044699       0.00000000
