10
Lattice="16.28999089631971 0.0 0.0 0.0 16.28999089631971 0.0 0.0 0.0 34.383488856416385" Properties=species:S:1:pos:R:3:initial_magmoms:R:1 pbc="T T T"
Si      -1.35927018      -1.32746233       1.35556981       0.00000000
Si      -1.35342207       1.35899325      -1.35660131       0.00000000
Si       1.35956340      -1.35505596      -1.35622309       0.00000000
Si       1.35399222       1.38350970       1.38754647       0.00000000
Si       0.16316064      -2.54480099       2.59609239       0.00000000
Si      -2.71280628       0.00161271      -2.71334016       0.00000000
Si       0.00172674      -2.71348128      -2.71334016       0.00000000
Si      -2.71155195       2.71580364       0.00426356       0.00000000
Si      -2.71072116      -2.71750006       0.00495123       0.00000000
Si       0.00205254       2.71700910      -2.71330577       0.00000000
