10
Lattice="16.28999089631971 0.0 0.0 0.0 16.28999089631971 0.0 0.0 0.0 34.383488856416385" Properties=species:S:1:pos:R:3:initial_magmoms:R:1 pbc="T T T"
Si      -1.74851973      -0.95264083      -1.20153169       0.00000000
Si       1.03299192       1.80230116      -1.08658762       0.00000000
Si      -0.69546897       0.13092273       2.25232608       0.00000000
Si       1.48723532      -1.89654600       0.18003205       0.00000000
Si       2.18385273       0.24943411      -2.43435237       0.00000000
Si      -2.08264392      -1.86582306       1.82923701       0.00000000
Si      -0.54428148      -2.50447251      -2.43559018       0.00000000
Si      -0.09866853      -3.34371702       1.54199719       0.00000000
Si       3.49043291      -1.09276187      -0.94994756       0.00000000
Si      -0.55768815       2.97566986      -2.41007761       0.00000000
