10
Lattice="16.28999089631971 0.0 0.0 0.0 16.28999089631971 0.0 0.0 0.0 34.383488856416385" Properties=species:S:1:pos:R:3:initial_magmoms:R:1 pbc="T T T"
Si       1.21026555      -1.92163356      -0.26475301       0.00000000
Si      -1.97516250      -1.16242182      -0.38746775       0.00000000
Si       0.26485911       0.68377275       2.23640652       0.00000000
Si       0.60510834       1.35532800      -1.86011340       0.00000000
Si       3.35295441       0.94455936       0.45221190       0.00000000
Si       2.18028618       1.97516250       2.15646486       0.00000000
Si      -2.53333935      -2.04915168       1.64298155       0.00000000
Si      -3.50588493       0.45932913      -0.95280139       0.00000000
Si       3.20658876      -1.37257911      -1.29364511       0.00000000
Si      -1.72439424       1.72457343       2.83639873       0.00000000
