10
Lattice="16.28999089631971 0.0 0.0 0.0 16.28999089631971 0.0 0.0 0.0 34.383488856416385" Properties=species:S:1:pos:R:3:initial_magmoms:R:1 pbc="T T T"
Si      -1.21026555       1.92163356       0.26475301       0.00000000
Si       1.99632321       0.54905445      -1.02889210       0.00000000
Si       0.05406651      -1.41607667       1.86193573       0.00000000
Si      -1.03671189      -1.43323330      -1.55035238       0.00000000
Si      -3.18542805       0.75921174      -0.12271474       0.00000000
Si       2.18663928      -1.55317005      -2.03326875       0.00000000
Si       0.54669240      -3.10774823      -1.17650050       0.00000000
Si       2.14268886       2.86619292       0.71696491       0.00000000
Si      -0.60515721       3.27696156      -1.59536039       0.00000000
Si      -0.94540644       2.60540631       2.50115953       0.00000000
