10
Lattice="16.28999089631971 0.0 0.0 0.0 16.28999089631971 0.0 0.0 0.0 34.383488856416385" Properties=species:S:1:pos:R:3:initial_magmoms:R:1 pbc="T T T"
Si      -1.66291578      -1.46996073       0.77641400       0.00000000
Si       1.42770447      -1.74956392      -0.65755021       0.00000000
Si      -0.89459793       1.40053275      -1.68754258       0.00000000
Si       0.95985567       1.46183202       1.61055790       0.00000000
Si       1.02082914       2.69192250      -1.76748423       0.00000000
Si       0.10487502      -2.62095023      -2.32676637       0.00000000
Si       0.98442099      -3.17491237       1.20287265       0.00000000
Si      -2.02628052      -2.61151995      -1.27291185       0.00000000
Si       2.98200246       0.35942256       2.14584036       0.00000000
Si       1.80700083       3.38061483       0.38698638       0.00000000
