10
Lattice="16.28999089631971 0.0 0.0 0.0 16.28999089631971 0.0 0.0 0.0 34.383488856416385" Properties=species:S:1:pos:R:3:initial_magmoms:R:1 pbc="T T T"
Si       1.30406337       1.29450114      -1.42842846       0.00000000
Si      -0.81243117       1.82579949       1.27786308       0.00000000
Si       0.71944785      -0.96120774       2.09478085       0.00000000
Si      -1.49832162      -1.43928666      -1.38675565       0.00000000
Si      -2.05990308      -1.69274277       2.45030632       0.00000000
Si      -0.95610897       0.91033407       3.41610468       0.00000000
Si       2.69555517      -2.51107092       0.26440918       0.00000000
Si       2.55099771      -0.14367780      -2.77313308       0.00000000
Si      -0.17920629       2.59524135      -2.75129955       0.00000000
Si       3.10857183       2.21552145      -0.08798740       0.00000000
