10
Lattice="16.28999089631971 0.0 0.0 0.0 16.28999089631971 0.0 0.0 0.0 34.383488856416385" Properties=species:S:1:pos:R:3:initial_magmoms:R:1 pbc="T T T"
Si      -1.30406337      -1.29450114       1.42842846       0.00000000
Si       1.24693434      -1.43817894      -1.34470462       0.00000000
Si      -1.48326966       1.30074021      -1.32287109       0.00000000
Si       1.80450846       0.92102031       1.34044106       0.00000000
Si      -2.11649454       0.53129835       2.70629154       0.00000000
Si       2.58864986      -0.07258824      -2.70051511       0.00000000
Si      -0.12686652       2.64578922      -2.70574140       0.00000000
Si       2.69945518      -2.65399938       0.12807857       0.00000000
Si       2.70764563       2.65147443       0.04277308       0.00000000
Si      -0.12214242      -2.78532936      -2.70281880       0.00000000
