10
Lattice="16.28999089631971 0.0 0.0 0.0 16.28999089631971 0.0 0.0 0.0 34.383488856416385" Properties=species:S:1:pos:R:3:initial_magmoms:R:1 pbc="T T T"
Si      -1.94953833      -0.03057633       1.31458466       0.00000000
Si       1.49095854       1.79815536       0.43938685       0.00000000
Si      -0.01773981      -0.40777128      -2.35090360       0.00000000
Si       1.41446070      -1.88387334       0.44079657       0.00000000
Si       0.62828901      -2.57256567      -1.71367404       0.00000000
Si       3.16561356       1.00400157      -1.10852430       0.00000000
Si       1.88638200       0.70082838      -3.05586866       0.00000000
Si       0.20970117       3.81014955       0.02867585       0.00000000
Si       3.69379727      -1.01467152       0.08898452       0.00000000
Si      -3.17228202       1.98456183       1.01235363       0.00000000
