10
Lattice="16.28999089631971 0.0 0.0 0.0 16.28999089631971 0.0 0.0 0.0 34.383488856416385" Properties=species:S:1:pos:R:3:initial_magmoms:R:1 pbc="T T T"
Si       1.94953833       0.03057633      -1.31458466       0.00000000
Si      -1.22274369       2.01513816      -0.30223104       0.00000000
Si      -1.43255889      -1.92262725      -0.15658250       0.00000000
Si       0.60318612       0.44720937       2.47709107       0.00000000
Si       0.32029398       3.80645172       0.19051902       0.00000000
Si      -1.32685308      -2.79257841      -2.34832483       0.00000000
Si      -3.21760080       1.85556132       1.14390493       0.00000000
Si       3.36399903      -1.85329701      -0.87378809       0.00000000
Si      -3.73982562      -1.37494116      -0.25371591       0.00000000
Si       3.44049687       1.82873169      -0.87519781       0.00000000
