10
Lattice="16.28999089631971 0.0 0.0 0.0 16.28999089631971 0.0 0.0 0.0 34.383488856416385" Properties=species:S:1:pos:R:3:initial_magmoms:R:1 pbc="T T T"
Si      -1.49095854      -1.79815536      -0.43938685       0.00000000
Si       1.67465502      -0.79415379      -1.54791115       0.00000000
Si      -1.28125737       2.01199419      -0.41071100       0.00000000
Si       0.65027727       0.02461419       2.33137376       0.00000000
Si       2.20283873      -2.81282688      -0.35040233       0.00000000
Si      -0.07649784      -3.68202870       0.00140972       0.00000000
Si       0.39542346      -1.09732698      -3.49525551       0.00000000
Si      -3.12020289       1.97772003       1.06571683       0.00000000
Si       0.00239463       3.83955300       0.32292991       0.00000000
Si      -1.50869835      -2.20592664      -2.79029045       0.00000000
