10
Lattice="16.28999089631971 0.0 0.0 0.0 16.28999089631971 0.0 0.0 0.0 34.383488856416385" Properties=species:S:1:pos:R:3:initial_magmoms:R:1 pbc="T T T"
Si       0.52732359      -0.32729868       2.25786182       0.00000000
Si      -1.98397539       1.47789396       0.28723983       0.00000000
Si       1.58590385       1.44717102      -1.36196514       0.00000000
Si       0.11821653      -2.21737851      -1.29306059       0.00000000
Si       1.02135370      -0.48692439      -2.59072857       0.00000000
Si      -0.59680044       3.47463975       0.71032889       0.00000000
Si       0.09866853       3.34371702      -1.54199719       0.00000000
Si       2.29261129       1.17823941       2.66816023       0.00000000
Si      -3.02813181       0.48798324       2.16420115       0.00000000
Si      -1.11278619       0.70578054       3.57344361       0.00000000
