10
Lattice="16.28999089631971 0.0 0.0 0.0 16.28999089631971 0.0 0.0 0.0 34.383488856416385" Properties=species:S:1:pos:R:3:initial_magmoms:R:1 pbc="T T T"
Si       1.51580079       0.91486269       1.52991280       0.00000000
Si      -1.00341513      -1.62629586       1.39583087       0.00000000
Si       0.70221303      -0.94778478      -2.06180706       0.00000000
Si       2.61073314       1.41780015      -0.44110603       0.00000000
Si       1.22779359      -3.12665373      -1.44035954       0.00000000
Si      -2.42579277      -0.23201847       2.83101225       0.00000000
Si       0.27300411       2.49052923       2.82881171       0.00000000
Si      -2.10209418      -3.21735645      -0.15826729       0.00000000
Si       3.13666200       0.13771566      -2.45673604       0.00000000
Si       0.28434195      -2.94286995       2.86076430       0.00000000
