10
Lattice="16.28999089631971 0.0 0.0 0.0 16.28999089631971 0.0 0.0 0.0 34.383488856416385" Properties=species:S:1:pos:R:3:initial_magmoms:R:1 pbc="T T T"
Si      -0.32612580       1.85615495      -1.42949435       0.00000000
Si      -1.16388792      -1.94168655      -0.87726082       0.00000000
Si      -1.97408736       0.79391500       1.19197307       0.00000000
Si       2.32121097       0.15120331      -1.00303570       0.00000000
Si      -2.01184758       2.95595801      -0.20007763       0.00000000
Si      -0.68949054       0.71459573      -3.47882020       0.00000000
Si      -1.76801886      -1.34643366      -3.08248150       0.00000000
Si       1.46292345      -3.36181617       1.21084962       0.00000000
Si       0.10008576      -3.92351166      -0.75461485       0.00000000
Si      -3.67598511      -0.88622487       1.38445195       0.00000000
