10
Lattice="16.28999089631971 0.0 0.0 0.0 16.28999089631971 0.0 0.0 0.0 34.383488856416385" Properties=species:S:1:pos:R:3:initial_magmoms:R:1 pbc="T T T"
Si      -0.57231657       0.05367555      -2.25380457       0.00000000
Si       2.24306784      -0.53701614      -0.33575496       0.00000000
Si      -0.86697009       1.97320770       1.00836514       0.00000000
Si      -0.42018426      -2.00748186       1.33817175       0.00000000
Si       2.66209551      -0.55234503       1.96264502       0.00000000
Si      -3.14630666       1.10400588       1.36017720       0.00000000
Si      -2.75981012      -0.61528959      -2.49854638       0.00000000
Si       2.24670051      -2.86852239      -1.09714336       0.00000000
Si      -0.90406242      -2.22070167      -2.98985233       0.00000000
Si       0.55014588       2.61790074       2.85249021       0.00000000
