10
Lattice="16.28999089631971 0.0 0.0 0.0 16.28999089631971 0.0 0.0 0.0 34.383488856416385" Properties=species:S:1:pos:R:3:initial_magmoms:R:1 pbc="T T T"
Si       0.82122777       1.84520088      -1.29186202       0.00000000
Si      -1.35974259       1.32323670       1.46721649       0.00000000
Si       1.37451762      -1.37068947       1.44557895       0.00000000
Si      -1.38205989      -1.42850268      -1.38583215       0.00000000
Si      -1.12721913       3.19881843      -1.26648699       0.00000000
Si       2.61125442       2.71966437       0.01178667       0.00000000
Si      -2.95571787       2.40606558       0.07706376       0.00000000
Si      -2.77351585      -2.67748956       0.08671865       0.00000000
Si      -2.04004557      -0.17176176      -3.29002521       0.00000000
Si       2.82934494      -2.68089417      -0.00509907       0.00000000
