10
Lattice="16.28999089631971 0.0 0.0 0.0 16.28999089631971 0.0 0.0 0.0 34.383488856416385" Properties=species:S:1:pos:R:3:initial_magmoms:R:1 pbc="T T T"
Si      -1.33875293      -1.34171608       1.36361555       0.00000000
Si       1.35690813      -1.35112029      -1.35526035       0.00000000
Si      -1.35855342       1.35998694      -1.35556981       0.00000000
Si       1.36247931       1.34900748       1.38837167       0.00000000
Si      -2.48961373       0.21115098       2.71138030       0.00000000
Si      -0.00156384      -2.71256766      -2.71334016       0.00000000
Si       2.71296918       0.00232947      -2.71320262       0.00000000
Si       2.71200807      -2.71441749       0.00656725       0.00000000
Si       2.71353933       2.71555929       0.00405725       0.00000000
Si      -2.71704409       0.00267156      -2.71313385       0.00000000
