10
Lattice="16.28999089631971 0.0 0.0 0.0 16.28999089631971 0.0 0.0 0.0 34.383488856416385" Properties=species:S:1:pos:R:3:initial_magmoms:R:1 pbc="T T T"
Si      -2.29504271       0.45862866      -0.07010797       0.00000000
Si       0.55710171      -1.68542856      -1.60471271       0.00000000
Si       1.24875882       1.76407668      -1.03088634       0.00000000
Si       1.02457584      -0.03547962       2.19614343       0.00000000
Si       3.25252656       0.70675794      -0.40077417       0.00000000
Si       2.84708475      -1.47188295      -1.16635736       0.00000000
Si      -2.60363070       2.52780075       0.92161555       0.00000000
Si       3.00742722       1.25574723       1.88782651       0.00000000
Si      -2.86530837       1.02390795      -2.29819368       0.00000000
Si       0.08710263      -0.86410305      -3.83847169       0.00000000
