10
Lattice="16.28999089631971 0.0 0.0 0.0 16.28999089631971 0.0 0.0 0.0 34.383488856416385" Properties=species:S:1:pos:R:3:initial_magmoms:R:1 pbc="T T T"
Si      -1.06210800       1.20679578       1.68596093       0.00000000
Si       1.48965534       1.85347620       0.12474337       0.00000000
Si      -1.41711597      -0.64469304      -1.84412507       0.00000000
Si       0.41795253      -1.65560157       1.93118411       0.00000000
Si      -0.40412232      -0.04994514       3.59015400       0.00000000
Si      -2.96967743       2.19274803       0.83765102       0.00000000
Si      -1.94529967       1.37398005      -3.04163389       0.00000000
Si      -0.55014588      -2.61790074      -2.85249021       0.00000000
Si       2.11194963      -3.17024577      -0.88984519       0.00000000
Si       1.48032117       0.75333105      -3.59489892       0.00000000
