10
Lattice="16.28999089631971 0.0 0.0 0.0 16.28999089631971 0.0 0.0 0.0 34.383488856416385" Properties=species:S:1:pos:R:3:initial_magmoms:R:1 pbc="T T T"
Si      -1.90756943       0.98595225      -0.84830991       0.00000000
Si       1.06210800      -1.20679578      -1.68596093       0.00000000
Si       0.65798568      -1.25674092       1.90419306       0.00000000
Si      -0.24268842       2.79731880      -0.13619308       0.00000000
Si       2.55176334       0.64668042      -1.56121757       0.00000000
Si      -2.20857281       0.88897788       2.12066651       0.00000000
Si       1.48006053      -2.86239735       0.24522318       0.00000000
Si       1.57338594       2.76276771      -1.70205242       0.00000000
Si       2.04004557       0.17176176       3.29002521       0.00000000
Si      -0.35500797      -1.85148882      -3.53008601       0.00000000
