10
Lattice="16.28999089631971 0.0 0.0 0.0 16.28999089631971 0.0 0.0 0.0 34.383488856416385" Properties=species:S:1:pos:R:3:initial_magmoms:R:1 pbc="T T T"
Si      -1.35708012       1.35778779       1.35711706       0.00000000
Si       1.35826672      -1.35723393       1.35763282       0.00000000
Si      -1.35773896      -1.35887922      -1.35804542       0.00000000
Si       1.35841333       1.35749457      -1.35993651       0.00000000
Si       0.00280188      -2.71207323      -2.71296194       0.00000000
Si      -2.71124311       0.00026064      -2.71430289       0.00000000
Si       2.71506082       0.00268785       2.71206797       0.00000000
Si       0.00104419      -2.71339272       2.71437166       0.00000000
Si      -2.71453369       0.00158013       2.71413098       0.00000000
Si      -2.71425676      -2.71467963      -0.00027507       0.00000000
