10
Lattice="16.28999089631971 0.0 0.0 0.0 16.28999089631971 0.0 0.0 0.0 34.383488856416385" Properties=species:S:1:pos:R:3:initial_magmoms:R:1 pbc="T T T"
Si      -1.76528770      -1.50553809      -0.41029840       0.00000000
Si      -1.10756687       2.07280869      -0.25622590       0.00000000
Si       0.69143068      -0.56537703       2.25167279       0.00000000
Si       2.09093716       0.11362275      -1.22807576       0.00000000
Si      -2.57602471       1.70755105       1.51662216       0.00000000
Si       2.55684745      -2.22997068      -1.00681788       0.00000000
Si      -3.40539748      -0.47245887       0.90528338       0.00000000
Si       3.38090968       0.98359020       0.62818669       0.00000000
Si      -2.29261129      -1.17823941      -2.66816023       0.00000000
Si      -1.01409485      -3.65238090       0.06512236       0.00000000
