10
Lattice="16.290000149 0.0 0.0 0.0 16.290000149 0.0 0.0 0.0 29.1751946751" Properties=species:S:1:pos:R:3:initial_magmoms:R:1 pbc="T T T"
Si      -1.34307793      -1.37803627       1.31457592       0.00000000
Si       1.30461724      -1.34643367      -1.43060567       0.00000000
Si       1.23020452       1.43476783       1.42374950       0.00000000
Si      -1.40069566       1.34152387      -1.35906809       0.00000000
Si       0.20372274      -2.70360245       2.49663811       0.00000000
Si       2.64388331       2.71858925       0.04457970       0.00000000
Si      -2.70858719      -0.00821016       2.65823951       0.00000000
Si      -0.29019006       2.75074572       2.62299588       0.00000000
Si       2.65930994       0.00904095      -2.76414547       0.00000000
Si      -0.06555096       2.70591563      -2.72750142       0.00000000
