10
Lattice="16.290000149 0.0 0.0 0.0 16.290000149 0.0 0.0 0.0 29.1751946751" Properties=species:S:1:pos:R:3:initial_magmoms:R:1 pbc="T T T"
Si      -1.36961434       1.38688174       1.31098737       0.00000000
Si      -1.36083403      -1.34591239      -1.36644942       0.00000000
Si       1.35337321       1.34719930      -1.37371404       0.00000000
Si       1.34860024      -1.33323877       1.40563170       0.00000000
Si       0.01399311       2.73579150       2.65182097       0.00000000
Si       2.67144599      -2.72880146       0.04242073       0.00000000
Si      -0.06507855      -2.61706020       2.78480151       0.00000000
Si      -2.69597873      -2.71030416       0.00198391       0.00000000
Si      -0.01063737      -2.69559429      -2.73879222       0.00000000
Si       2.72785826       2.71006958      -0.04139960       0.00000000
