10
Lattice="16.290000149 0.0 0.0 0.0 16.290000149 0.0 0.0 0.0 29.1751946751" Properties=species:S:1:pos:R:3:initial_magmoms:R:1 pbc="T T T"
Si       1.61808571      -0.20460240      -1.67083422       0.00000000
Si      -0.42727041       2.29357501      -0.28793000       0.00000000
Si       0.24878088      -0.50960007       2.30374689       0.00000000
Si      -1.90540874      -1.29740077      -0.62539947       0.00000000
H        1.32620149      -2.22322664       1.52081537       0.00000000
H       -2.81295723      -0.48935160      -1.53584060       0.00000000
Si      -1.49447719       1.03399147       2.75483858       0.00000000
Si       0.05075964      -0.96575266      -3.26546284       0.00000000
Si      -2.32867181       2.28324063       1.04485125       0.00000000
Si      -0.86802895      -2.79324633      -2.08407168       0.00000000
