10
Lattice="16.290000149 0.0 0.0 0.0 16.290000149 0.0 0.0 0.0 29.1751946751" Properties=species:S:1:pos:R:3:initial_magmoms:R:1 pbc="T T T"
Si      -1.36770841      -1.35772264      -1.32875507       0.00000000
Si      -1.43813008       1.33411843       1.28076187       0.00000000
Si       1.35329176       1.35161389      -1.36151881       0.00000000
Si       1.36386397      -1.32579424       1.37978248       0.00000000
Si      -0.08702118       2.67654476       2.59207017       0.00000000
Si      -0.09308106      -2.62412354       2.68181307       0.00000000
Si       0.00319284      -2.71443530      -2.66112786       0.00000000
Si      -2.71138907       0.02520063      -2.67174763       0.00000000
Si       2.73126287      -0.01448181      -2.67320639       0.00000000
Si       2.73140948       2.69089625      -0.02955447       0.00000000
