10
Lattice="16.290000149 0.0 0.0 0.0 16.290000149 0.0 0.0 0.0 29.1751946751" Properties=species:S:1:pos:R:3:initial_magmoms:R:1 pbc="T T T"
Si       1.13549446      -0.07051941      -0.99849186       0.00000000
H        0.66622843       0.91043182       1.63833306       0.00000000
H       -0.88998787       1.78023638       0.46163911       0.00000000
Si      -2.25320024       1.19759194       0.19045567       0.00000000
Si      -2.72828180      -1.01175562       0.79511158       0.00000000
Si       0.13874193       0.65954953       3.02765583       0.00000000
Si       1.35606106      -2.20810952      -1.90333135       0.00000000
Si       3.19411065       0.62187076      -0.09053063       0.00000000
Si       0.90256375       1.44304966      -2.83431181       0.00000000
H        0.30331980      -3.26267526       1.10069257       0.00000000
