10
Lattice="16.290000149 0.0 0.0 0.0 16.290000149 0.0 0.0 0.0 29.1751946751" Properties=species:S:1:pos:R:3:initial_magmoms:R:1 pbc="T T T"
Si      -1.37791898       1.45175015      -1.15959729       0.00000000
Si       1.52780653      -1.26306145      -1.21625552       0.00000000
Si       0.84603745       1.66221858       1.39612059       0.00000000
Si      -0.91667089      -1.73268587       1.28175383       0.00000000
H        0.23021028       2.96636016       0.95557515       0.00000000
Si       2.56303604      -2.08906220       0.73617769       0.00000000
Si       0.11727171      -2.65831625      -2.51685652       0.00000000
Si      -2.60838626       0.09032577      -2.60589921       0.00000000
Si       0.09529650       1.07396224       3.55132140       0.00000000
Si       0.73852345      -3.38437785       1.37914063       0.00000000
