10
Lattice="16.290000149 0.0 0.0 0.0 16.290000149 0.0 0.0 0.0 29.1751946751" Properties=species:S:1:pos:R:3:initial_magmoms:R:1 pbc="T T T"
Si       0.50046138      -0.23907204       2.27185695       0.00000000
Si      -1.68311540       1.64918333       0.09762020       0.00000000
Si       0.00506619      -2.28608975      -0.68100739       0.00000000
Si       1.83865232       0.83251675      -1.37584383       0.00000000
H       -0.81039493       0.17200611      -2.53643307       0.00000000
H        2.93622366       0.03287322      -0.37037910       0.00000000
Si       2.22027815      -2.65158848       0.11086574       0.00000000
Si      -0.26639037       3.37589076      -0.81296680       0.00000000
Si       2.12936366      -1.97635169       2.34713566       0.00000000
Si      -3.73067067       0.63288280      -0.63394781       0.00000000
