10
Lattice="16.290000149 0.0 0.0 0.0 16.290000149 0.0 0.0 0.0 29.1751946751" Properties=species:S:1:pos:R:3:initial_magmoms:R:1 pbc="T T T"
Si       1.42380466       1.43560513       1.16826232       0.00000000
Si       1.43492910      -1.24677145      -1.36860838       0.00000000
Si      -1.29138976       1.41138190      -1.35968077       0.00000000
Si      -1.64429633      -1.05279013       1.42745475       0.00000000
H        0.26308350      -2.65849544       1.67118433       0.00000000
H       -1.09952614       1.41169141       2.80691630       0.00000000
Si      -0.06336810       2.51421491       2.59209935       0.00000000
Si      -2.62541045       2.48134169       0.26053449       0.00000000
Si       0.07722649      -2.65849544      -2.68169637       0.00000000
Si      -3.32664609       0.62439571       1.68057874       0.00000000
