10
Lattice="16.290000149 0.0 0.0 0.0 16.290000149 0.0 0.0 0.0 29.1751946751" Properties=species:S:1:pos:R:3:initial_magmoms:R:1 pbc="T T T"
Si       1.34376863       1.33123510      -1.38055854       0.00000000
Si      -1.33240147      -1.36119241      -1.37594594       0.00000000
Si      -1.35387169       1.38875509       1.32872589       0.00000000
Si       1.36789412      -1.34788348       1.36583674       0.00000000
Si      -2.62660940      -2.67597461       0.09163929       0.00000000
Si       2.70934305       2.69752628      -0.01919728       0.00000000
Si      -2.69349614       0.03427416       2.71329310       0.00000000
Si       0.01213279       2.71795394       2.70640776       0.00000000
Si      -0.04083089       2.66983328      -2.75471896       0.00000000
Si       2.73153003       0.00548973       2.71638568       0.00000000
