10
Lattice="16.290000149 0.0 0.0 0.0 16.290000149 0.0 0.0 0.0 29.1751946751" Properties=species:S:1:pos:R:3:initial_magmoms:R:1 pbc="T T T"
Si       0.98241733       0.05378958      -1.16006409       0.00000000
H       -1.19223253      -1.78326632      -0.34312946       0.00000000
H        1.94882159       0.36137736       1.29111907       0.00000000
Si      -1.71971903      -2.03414861       1.04619331       0.00000000
Si       0.11220552       1.47219247      -2.76073197       0.00000000
Si       1.28498779       2.91030138       0.32816259       0.00000000
Si       1.33564969      -2.07182738      -2.07199315       0.00000000
H       -2.74844883      -0.91346176      -1.51982342       0.00000000
Si       2.87780772       1.37800369      -0.75607517       0.00000000
Si      -2.56831400      -0.15495048       2.15601771       0.00000000
