10
Lattice="16.290000149 0.0 0.0 0.0 16.290000149 0.0 0.0 0.0 29.1751946751" Properties=species:S:1:pos:R:3:initial_magmoms:R:1 pbc="T T T"
Si       1.37411038       1.34361550      -1.34194225       0.00000000
Si       1.36216981      -1.39444030       1.30480223       0.00000000
Si      -1.35518140      -1.35327547      -1.35982665       0.00000000
Si      -1.35216775       1.36972837       1.35051976       0.00000000
Si       0.00584811       2.69451263      -2.68213400       0.00000000
Si      -2.74069479       0.00988803       2.66363692       0.00000000
Si       2.78347233      -0.08586459       2.61826950       0.00000000
Si       0.01394424      -2.75312406       2.65777271       0.00000000
Si       0.01322748      -2.73297332      -2.68230905       0.00000000
Si       0.02534724       2.73504216       2.68656863       0.00000000
