10
Lattice="16.290000149 0.0 0.0 0.0 16.290000149 0.0 0.0 0.0 29.1751946751" Properties=species:S:1:pos:R:3:initial_magmoms:R:1 pbc="T T T"
Si       1.36770841       1.35772264       1.32875507       0.00000000
Si       1.37090125      -1.35671266      -1.33237279       0.00000000
Si      -1.34368066       1.38292327      -1.34299256       0.00000000
Si      -1.37463166      -1.33652935       1.36169386       0.00000000
Si      -0.07042167       2.69184107       2.60951694       0.00000000
Si      -0.00286704      -2.70370019      -2.67495690       0.00000000
Si      -2.69159672       0.02117700      -2.69342480       0.00000000
Si      -0.01945026      -2.70309746       2.69829705       0.00000000
Si       2.72031599       0.00817758      -2.68878594       0.00000000
Si       2.72100017       2.70933653      -0.03276374       0.00000000
