10
Lattice="16.290000149 0.0 0.0 0.0 16.290000149 0.0 0.0 0.0 29.1751946751" Properties=species:S:1:pos:R:3:initial_magmoms:R:1 pbc="T T T"
Si       1.37811772       1.33928236       1.33196434       0.00000000
Si       1.37797111      -1.36609570      -1.31168758       0.00000000
Si      -1.35329176      -1.35161389       1.36151881       0.00000000
Si      -1.35092971       1.37648872      -1.34179638       0.00000000
Si      -0.05690097       2.66071088       2.61298879       0.00000000
Si      -0.00068418      -2.70115895      -2.65602220       0.00000000
Si       2.73351090      -0.01006722      -2.66871341       0.00000000
Si      -2.71652042       0.02120958      -2.68820244       0.00000000
Si       0.01057221      -2.67740813       2.74130129       0.00000000
Si       2.72634329       2.69796611      -0.02100614       0.00000000
