10
Lattice="16.290000149 0.0 0.0 0.0 16.290000149 0.0 0.0 0.0 29.1751946751" Properties=species:S:1:pos:R:3:initial_magmoms:R:1 pbc="T T T"
Si      -0.22056660       2.13759011       0.90483949       0.00000000
Si      -1.81354943      -0.74828116      -1.38573422       0.00000000
Si       0.34430544      -1.95305699       1.37184683       0.00000000
Si       2.12139785       0.59087089      -1.00695267       0.00000000
H        2.18175230      -0.18101448       1.61108343       0.00000000
H       -1.35606106       2.20810952       1.90333135       0.00000000
H        2.82030402      -0.62309251       1.60974137       0.00000000
H       -1.05274126      -1.05456574       3.00402392       0.00000000
Si       1.95538646      -2.73341316      -0.15182771       0.00000000
H        1.08177004      -1.88721281       2.68963202       0.00000000
