10
Lattice="16.290000149 0.0 0.0 0.0 16.290000149 0.0 0.0 0.0 29.1751946751" Properties=species:S:1:pos:R:3:initial_magmoms:R:1 pbc="T T T"
Si       1.12089862      -0.99334792      -0.26987055       0.00000000
Si      -1.90737983       1.60570531      -0.24372958       0.00000000
H       -1.15896835      -1.80581168       1.88579706       0.00000000
Si      -1.54523683       1.37880190       2.11409296       0.00000000
Si      -0.19417110      -2.70589934      -1.40449387       0.00000000
Si       2.60555294       0.19709271      -1.65887239       0.00000000
Si       2.41926050      -0.84768274       1.75809723       0.00000000
Si      -0.26308350       2.65849544      -1.67118433       0.00000000
Si      -1.09483462      -0.76134574       2.98152984       0.00000000
Si      -2.97057927      -0.09500328      -1.62415391       0.00000000
