10
Lattice="16.290000149 0.0 0.0 0.0 16.290000149 0.0 0.0 0.0 29.1751946751" Properties=species:S:1:pos:R:3:initial_magmoms:R:1 pbc="T T T"
Si       1.42460938      -1.36133902      -1.26804149       0.00000000
Si       1.35772264       1.34890975       1.35361233       0.00000000
Si      -1.32359509      -1.38798946       1.38159134       0.00000000
Si      -1.33889140       1.33551937      -1.42290342       0.00000000
Si       0.03805344      -2.70658352      -2.54573413       0.00000000
Si      -2.68413590       2.61552242       0.03775270       0.00000000
Si       2.69734709       2.70339068      -0.03095488       0.00000000
Si       2.70275537      -0.03155373       2.70868342       0.00000000
Si       0.01475874       2.68012856       2.74007593       0.00000000
Si      -2.71060715      -0.07148052      -2.73504029       0.00000000
