10
Lattice="16.290000149 0.0 0.0 0.0 16.290000149 0.0 0.0 0.0 29.1751946751" Properties=species:S:1:pos:R:3:initial_magmoms:R:1 pbc="T T T"
Si       1.35922132       1.36438525       1.33161424       0.00000000
Si       1.36379881      -1.34827444      -1.35011131       0.00000000
Si      -1.33029028       1.36642150      -1.37511445       0.00000000
Si      -1.35496963      -1.37787337       1.35556707       0.00000000
Si       2.69697242      -0.01009980       2.68423461       0.00000000
Si      -0.00417024      -2.69641856      -2.68992377       0.00000000
Si      -2.70824510       0.00299736      -2.68120039       0.00000000
Si      -2.71451675       2.68156208      -0.01735924       0.00000000
Si       0.01301571       2.71259453       2.69774273       0.00000000
Si       2.69606018       2.72285723      -0.04802237       0.00000000
