10
Lattice="16.290000149 0.0 0.0 0.0 16.290000149 0.0 0.0 0.0 29.1751946751" Properties=species:S:1:pos:R:3:initial_magmoms:R:1 pbc="T T T"
Si       1.38730528       1.36029646      -1.30267244       0.00000000
Si       1.38243457      -1.34514676       1.33631144       0.00000000
Si      -1.31753521       1.37103157       1.38789319       0.00000000
Si      -1.33201702      -1.34366437      -1.41505529       0.00000000
Si       0.01521486       2.71952430      -2.61541033       0.00000000
Si       0.01461213      -2.68975595       2.67837040       0.00000000
Si      -2.67736904      -2.69252525      -0.04659279       0.00000000
Si      -2.66438428       2.73138179       0.03282209       0.00000000
Si       2.71161713       0.01120752      -2.68846501       0.00000000
Si      -2.69222715       0.02223585       2.73815037       0.00000000
