10
Lattice="16.290000149 0.0 0.0 0.0 16.290000149 0.0 0.0 0.0 29.1751946751" Properties=species:S:1:pos:R:3:initial_magmoms:R:1 pbc="T T T"
Si       1.24108624      -1.38963475       1.37102992       0.00000000
Si      -1.35927019       1.34713414       1.33494021       0.00000000
Si      -1.29407761      -1.43669656      -1.31227108       0.00000000
Si       1.45694503       1.29832930      -1.30203059       0.00000000
Si       2.68260464      -0.06284682       2.58252988       0.00000000
Si      -2.64925901      -0.07012845      -2.64887427       0.00000000
Si       0.09308106       2.62412354      -2.68181307       0.00000000
Si       0.02821428       2.69827562       2.62836411       0.00000000
Si      -2.60227865      -2.78412067       0.10975708       0.00000000
Si       0.13058064      -2.79885660      -2.61103405       0.00000000
