10
Lattice="16.290000149 0.0 0.0 0.0 16.290000149 0.0 0.0 0.0 29.1751946751" Properties=species:S:1:pos:R:3:initial_magmoms:R:1 pbc="T T T"
Si      -1.29015172      -1.43825030       1.28236651       0.00000000
Si       1.30777750      -1.40630561      -1.33636979       0.00000000
Si      -1.42974073       1.63234956      -0.92637078       0.00000000
Si       1.19625616       1.13913397       1.69038160       0.00000000
Si      -0.79333930       2.02803367       2.66707960       0.00000000
Si      -2.31987521       0.18212579       2.60161046       0.00000000
Si      -0.08293239       2.65878247      -2.55560118       0.00000000
Si       2.62973301       2.58423943       0.35418686       0.00000000
Si       0.23221395      -2.43514944       2.79171603       0.00000000
Si       1.75910825      -0.58941098       3.22785601       0.00000000
