10
Lattice="16.290000149 0.0 0.0 0.0 16.290000149 0.0 0.0 0.0 29.1751946751" Properties=species:S:1:pos:R:3:initial_magmoms:R:1 pbc="T T T"
Si      -0.73500481       1.33193557      -1.78797263       0.00000000
Si       1.98959546      -0.88889970      -0.97669799       0.00000000
Si      -0.61383979       1.06684840       2.04696083       0.00000000
Si      -1.52653591      -1.84590788      -0.06546914       0.00000000
H        2.45827505       1.45629343       0.97739820       0.00000000
H        1.12158280      -0.90210926       2.87180194       0.00000000
Si      -2.49787604       2.30055527      -0.54303790       0.00000000
Si       0.79333930      -2.02803367      -2.66707960       0.00000000
Si      -0.63640144      -0.39568410      -3.59345038       0.00000000
Si       2.55244754      -2.61744464       0.56077642       0.00000000
