10
Lattice="16.290000149 0.0 0.0 0.0 16.290000149 0.0 0.0 0.0 29.1751946751" Properties=species:S:1:pos:R:3:initial_magmoms:R:1 pbc="T T T"
Si       1.36182935      -1.33895656       1.37767603       0.00000000
Si      -1.50043770      -1.38468259      -1.17378139       0.00000000
Si      -1.39844601       1.34974054       1.36799570       0.00000000
Si       1.48042055       1.20690982      -1.43356695       0.00000000
Si      -2.63741456       0.12271257      -2.55199804       0.00000000
Si       2.66077767       2.67152744       0.01325429       0.00000000
Si      -0.23884398      -2.81155629      -2.50283784       0.00000000
Si       0.13216729       2.61324182      -2.75476564       0.00000000
Si      -0.01235759      -2.70067025       2.73781486       0.00000000
Si       2.67804507       0.00161271       2.77588849       0.00000000
