10
Lattice="16.290000149 0.0 0.0 0.0 16.290000149 0.0 0.0 0.0 29.1751946751" Properties=species:S:1:pos:R:3:initial_magmoms:R:1 pbc="T T T"
Si      -1.19625616      -1.13913397      -1.69038160       0.00000000
Si       0.56285209      -1.72854495       1.53747441       0.00000000
Si      -1.98959546       0.88889970       0.97669799       0.00000000
Si       1.43347684       1.44510546      -1.33619474       0.00000000
H        0.46867959       2.34519313       1.95409619       0.00000000
Si      -2.48640788      -2.57738428      -0.40801510       0.00000000
Si      -2.72460026       2.22083527      -0.81127464       0.00000000
Si      -2.62599689       0.49321559      -2.61675239       0.00000000
Si      -3.51613137      -0.95700819       0.91122886       0.00000000
Si      -0.96404221      -3.57428341       1.10133442       0.00000000
