10
Lattice="16.290000149 0.0 0.0 0.0 16.290000149 0.0 0.0 0.0 29.1751946751" Properties=species:S:1:pos:R:3:initial_magmoms:R:1 pbc="T T T"
Si      -1.35949825       1.35241210       1.35238697       0.00000000
Si      -1.35982405      -1.34322454      -1.36361942       0.00000000
Si       1.32462136      -1.36394542       1.39221111       0.00000000
Si       1.35496963       1.37787337      -1.35556707       0.00000000
Si       2.69465924      -2.70445442       0.02716211       0.00000000
Si       2.69824304       0.01951542       2.70171055       0.00000000
Si       0.01498680       2.71528238       2.68470141       0.00000000
Si      -2.72350883      -2.69038149      -0.01269121       0.00000000
Si       0.00232947      -2.70601175      -2.70932528       0.00000000
Si      -2.71508690       2.70340697      -0.01590048       0.00000000
