10
Lattice="16.290000149 0.0 0.0 0.0 16.290000149 0.0 0.0 0.0 29.1751946751" Properties=species:S:1:pos:R:3:initial_magmoms:R:1 pbc="T T T"
Si      -1.35874891      -1.36418977       1.34232153       0.00000000
Si      -1.35995437       1.35277211      -1.35317470       0.00000000
Si       1.33237540       1.35432944       1.38331268       0.00000000
Si       1.35076681      -1.36072000      -1.35944737       0.00000000
Si       2.68307705       2.70620885       0.01053225       0.00000000
Si      -2.71112843       0.02120958       2.67915813       0.00000000
Si       0.02902878      -2.70642062       2.68922357       0.00000000
Si      -2.70778898      -0.03166776      -2.69456263       0.00000000
Si       2.66525579      -0.01154961       2.75489693       0.00000000
Si      -0.01148445       2.74023866      -2.68934027       0.00000000
