10
Lattice="16.290000149 0.0 0.0 0.0 16.290000149 0.0 0.0 0.0 29.1751946751" Properties=species:S:1:pos:R:3:initial_magmoms:R:1 pbc="T T T"
Si      -0.84602116      -0.93475279      -0.80751104       0.00000000
H        1.43974279       0.90987796       0.54896046       0.00000000
H        0.81029719      -0.74396431       1.65041159       0.00000000
Si       2.08683047       1.73490131      -0.52815855       0.00000000
Si      -1.09294498       2.74799271      -0.06310595       0.00000000
Si      -0.80847271       1.85692970       2.17687798       0.00000000
Si      -2.14029425       0.35821710      -2.23566599       0.00000000
Si       0.58411054      -2.37895904      -1.92713831       0.00000000
Si      -2.67892310      -1.75962953       0.35514964       0.00000000
Si       1.99223444      -1.25799526       2.45313789       0.00000000
