10
Lattice="16.290000149 0.0 0.0 0.0 16.290000149 0.0 0.0 0.0 29.1751946751" Properties=species:S:1:pos:R:3:initial_magmoms:R:1 pbc="T T T"
Si       1.29015172       1.43825030      -1.28236651       0.00000000
Si      -1.02972349       1.62037609       1.31924395       0.00000000
Si       1.52236567      -0.99689914       1.50934952       0.00000000
Si      -1.57514527      -1.30684897      -1.21059553       0.00000000
Si       2.48640788       2.57738428       0.40801510       0.00000000
Si      -1.56048427       0.36028593       3.25093359       0.00000000
H        0.67307023      -2.25390071      -2.83851304       0.00000000
Si       2.59792922       0.03194469      -2.61873630       0.00000000
Si       3.04925997       0.84883933       1.94548951       0.00000000
Si       2.52662789      -2.75185344       0.23990763       0.00000000
