10
Lattice="16.290000149 0.0 0.0 0.0 16.290000149 0.0 0.0 0.0 29.1751946751" Properties=species:S:1:pos:R:3:initial_magmoms:R:1 pbc="T T T"
H       -0.61582717       1.30414157      -0.44054544       0.00000000
Si      -0.84603745      -1.66221858      -1.39612059       0.00000000
Si       2.30754368       0.08615455      -0.36448571       0.00000000
Si      -0.75074095      -0.58825634       2.15520081       0.00000000
H        1.40036986       1.64742075      -1.86012289       0.00000000
Si       2.36884295      -1.97811427       0.92593315       0.00000000
Si      -2.22395643      -0.21046843      -2.55571788       0.00000000
Si      -2.12621969       2.78799769       0.18514579       0.00000000
Si       1.32159142      -1.30493653       3.00136898       0.00000000
Si       0.49780611       2.54996821      -2.66812990       0.00000000
