10
Lattice="16.290000149 0.0 0.0 0.0 16.290000149 0.0 0.0 0.0 29.1751946751" Properties=species:S:1:pos:R:3:initial_magmoms:R:1 pbc="T T T"
Si       1.35930277       1.35070165      -1.35326223       0.00000000
Si       1.37070577      -1.34211682       1.35661738       0.00000000
Si      -1.33766626       1.36327753       1.37251786       0.00000000
Si      -1.34908894      -1.37792224      -1.35069481       0.00000000
Si      -2.68495040      -0.05054787       2.67554040       0.00000000
Si       2.66885588      -2.70021413      -0.06097616       0.00000000
Si      -0.02995242       2.69949737      -2.68335936       0.00000000
Si      -2.69187365      -0.02044395      -2.72000340       0.00000000
Si       2.67688685      -0.01249443      -2.74313933       0.00000000
Si       2.72759762       0.03943809       2.70678704       0.00000000
