10
Lattice="16.290000149 0.0 0.0 0.0 16.290000149 0.0 0.0 0.0 29.1751946751" Properties=species:S:1:pos:R:3:initial_magmoms:R:1 pbc="T T T"
Si       1.34534224      -1.34467435       1.36659529       0.00000000
Si      -1.35451351       1.33151203       1.39845461       0.00000000
Si      -1.42117219      -1.46056141      -1.22440415       0.00000000
Si       1.45676584       1.43758192      -1.21734375       0.00000000
Si      -0.99533530       0.92325205      -3.42718094       0.00000000
Si       0.03823263       2.77978916      -2.47220388       0.00000000
Si      -2.82639648      -0.09410733      -2.47677564       0.00000000
Si       2.68848533      -2.64811871      -0.05665823       0.00000000
Si      -0.08373060      -2.61741206      -2.78150471       0.00000000
Si      -0.00887805      -2.71648784       2.71268043       0.00000000
