10
Lattice="16.290000149 0.0 0.0 0.0 16.290000149 0.0 0.0 0.0 29.1751946751" Properties=species:S:1:pos:R:3:initial_magmoms:R:1 pbc="T T T"
Si       1.34791606       1.36174627       1.35043224       0.00000000
Si      -1.34619584       1.35746200      -1.36058520       0.00000000
Si       1.35917245      -1.35526285      -1.35425419       0.00000000
Si      -1.36770027      -1.36528120       1.34372194       0.00000000
Si      -0.03570768      -2.69790095      -2.68178389       0.00000000
Si       2.69159672      -0.02117700       2.69342480       0.00000000
Si      -2.68060097      -0.01912446      -2.70634941       0.00000000
Si      -0.04025259       2.71283888       2.68368028       0.00000000
Si       2.69607647       2.70936911      -0.02754138       0.00000000
Si       2.68872968      -2.72487719       0.01846790       0.00000000
