10
Lattice="16.290000149 0.0 0.0 0.0 16.290000149 0.0 0.0 0.0 29.1751946751" Properties=species:S:1:pos:R:3:initial_magmoms:R:1 pbc="T T T"
Si       2.27445706      -0.47915406       0.11751768       0.00000000
Si      -0.28510758       0.71204242       2.21541841       0.00000000
Si      -0.56285209       1.72854495      -1.53747441       0.00000000
Si      -1.52689429      -1.84573847      -0.43613999       0.00000000
H       -1.43086474       1.71533539       2.31102552       0.00000000
Si       2.54920583      -1.29670030      -2.03855838       0.00000000
Si      -1.10768743      -1.22043052       3.21764470       0.00000000
Si      -2.55244754       2.61744464      -0.56077642       0.00000000
Si      -2.67501350      -1.98158078       1.62301608       0.00000000
Si      -3.04925997      -0.84883933      -1.94548951       0.00000000
