10
Lattice="16.290000149 0.0 0.0 0.0 16.290000149 0.0 0.0 0.0 29.1751946751" Properties=species:S:1:pos:R:3:initial_magmoms:R:1 pbc="T T T"
H       -0.90754849       0.80804917      -0.91044113       0.00000000
Si       1.03737979      -1.49584555      -1.45867221       0.00000000
Si      -1.38367261      -1.23018823       1.44043771       0.00000000
Si       1.90540874       1.29740077       0.62539947       0.00000000
Si       1.95616838       0.33164811      -2.64006337       0.00000000
Si       0.02143764       1.82467550      -2.95763536       0.00000000
H       -2.85637008       0.44667180      -2.20156019       0.00000000
Si       2.15418962       0.78780070       2.92914637       0.00000000
Si       0.01296684      -2.66007557       2.65826869       0.00000000
Si       2.53605980      -2.80953633      -0.16562758       0.00000000
