10
Lattice="16.290000149 0.0 0.0 0.0 16.290000149 0.0 0.0 0.0 29.1751946751" Properties=species:S:1:pos:R:3:initial_magmoms:R:1 pbc="T T T"
H       -1.13549446       0.07051941       0.99849186       0.00000000
Si       0.22056660      -2.13759011      -0.90483949       0.00000000
Si       2.05861619       0.69239017       0.90796123       0.00000000
Si      -0.23293071       1.51356907      -1.83581995       0.00000000
H       -0.46926603       0.98095123       2.63682492       0.00000000
H       -2.02548233       1.85075579       1.46013097       0.00000000
Si       2.34196445      -1.54671922      -1.91179216       0.00000000
H        2.40231890      -2.31860459       0.70624394       0.00000000
Si       3.31271814       0.45023931      -1.03528178       0.00000000
Si       1.70538383       2.81800713       1.81989029       0.00000000
