10
Lattice="16.290000149 0.0 0.0 0.0 16.290000149 0.0 0.0 0.0 29.1751946751" Properties=species:S:1:pos:R:3:initial_magmoms:R:1 pbc="T T T"
Si       1.43912716      -1.34889346       1.28715124       0.00000000
Si      -1.25861428      -1.36751293      -1.45485026       0.00000000
Si       1.37761273       1.32735808      -1.38917689       0.00000000
Si      -1.42892623       1.28314702       1.41082489       0.00000000
Si       0.09184302      -2.76271887       2.59017378       0.00000000
Si      -2.69135237       2.67410289      -0.01940150       0.00000000
Si      -0.02775816       2.69872849       2.66839248       0.00000000
Si      -2.59533911      -2.81626410      -0.19967503       0.00000000
Si      -2.72292239      -0.31022676       2.68405956       0.00000000
Si       2.74896033       2.69906732      -0.05977997       0.00000000
