10
Lattice="16.290000149 0.0 0.0 0.0 16.290000149 0.0 0.0 0.0 29.1751946751" Properties=species:S:1:pos:R:3:initial_magmoms:R:1 pbc="T T T"
Si       1.36692649       1.35474157      -1.34590133       0.00000000
Si      -1.35068536      -1.36902790      -1.35769102       0.00000000
Si       1.35392707      -1.32082579       1.40399789       0.00000000
Si      -1.36156708       1.37433844       1.34929440       0.00000000
Si       2.67472028       2.64903095       0.12708715       0.00000000
Si      -2.70309746      -2.68560200       0.04017424       0.00000000
Si       0.07268598      -2.74813932      -2.65324180       0.00000000
Si      -0.00289962       2.76524382      -2.65286544       0.00000000
Si       2.77190643      -2.65258217       0.10097535       0.00000000
Si      -2.71565705       0.02920797       2.72461308       0.00000000
