10
Lattice="16.290000149 0.0 0.0 0.0 16.290000149 0.0 0.0 0.0 29.1751946751" Properties=species:S:1:pos:R:3:initial_magmoms:R:1 pbc="T T T"
Si       0.97927336      -1.46619775      -1.49738769       0.00000000
Si      -1.68863771       0.92976805      -1.31661819       0.00000000
Si      -1.28241397      -1.47149200       1.32026508       0.00000000
Si       1.50377878       1.28705662       1.27918641       0.00000000
H       -1.16115121       1.18065034      -2.70594096       0.00000000
Si      -0.92727568      -2.92436454      -1.84191757       0.00000000
Si      -2.64873773      -2.50831793      -0.31375004       0.00000000
Si      -2.58416417      -0.04344543       2.62226008       0.00000000
Si       0.16239501       2.64684809       2.61916051       0.00000000
Si       2.53619012      -2.77819437      -0.40503923       0.00000000
