10
Lattice="16.290000149 0.0 0.0 0.0 16.290000149 0.0 0.0 0.0 29.1751946751" Properties=species:S:1:pos:R:3:initial_magmoms:R:1 pbc="T T T"
Si       1.41920110      -1.37378458       1.25161585       0.00000000
Si       1.37583712       1.32023935      -1.36359025       0.00000000
Si      -1.33724611       1.33121881       1.40901603       0.00000000
Si      -1.35689185      -1.38155491      -1.35016966       0.00000000
Si      -2.68483637       2.68325624       0.02255243       0.00000000
Si       0.11982924      -2.60899013       2.75513033       0.00000000
Si       0.00213399       2.67227678      -2.70856672       0.00000000
Si      -2.79901787      -0.05206284       2.62638020       0.00000000
Si       2.78444973       2.64577295      -0.00761473       0.00000000
Si      -2.72759762      -0.03943809      -2.70678704       0.00000000
