10
Lattice="16.290000149 0.0 0.0 0.0 16.290000149 0.0 0.0 0.0 29.1751946751" Properties=species:S:1:pos:R:3:initial_magmoms:R:1 pbc="T T T"
Si      -1.35408997      -1.34513047       1.37531868       0.00000000
Si       1.33654564       1.35062020       1.39285297       0.00000000
Si      -1.37627695       1.34690608      -1.36026428       0.00000000
Si       1.36156708      -1.37433844      -1.34929440       0.00000000
Si       2.71549415      -2.69516423       0.05470349       0.00000000
Si       2.69923673       2.71526609       0.06511903       0.00000000
Si      -2.71772588      -2.69850368       0.02476974       0.00000000
Si       2.72849357      -0.01959687      -2.69519573       0.00000000
Si      -0.02401146       2.74691757      -2.67929233       0.00000000
Si      -2.72813520       2.71619462      -0.00312175       0.00000000
