10
Lattice="16.290000149 0.0 0.0 0.0 16.290000149 0.0 0.0 0.0 29.1751946751" Properties=species:S:1:pos:R:3:initial_magmoms:R:1 pbc="T T T"
Si      -0.73746460      -0.06584418      -1.31778519       0.00000000
H        1.09998226       1.70619833      -1.07854860       0.00000000
H       -2.13451130       0.83264707       0.31439190       0.00000000
H        1.73853398       1.26412030      -1.07989066       0.00000000
Si      -1.53772714       0.90073927       1.71605578       0.00000000
Si       0.26155224      -2.69576696       1.37753599       0.00000000
Si       2.26387019      -2.08031447       0.24308772       0.00000000
Si       0.87361642      -0.84620035      -2.84145973       0.00000000
Si       0.36882189       2.35890605       2.06058565       0.00000000
Si      -1.15414651      -1.22658814       2.68134627       0.00000000
