10
Lattice="16.290000149 0.0 0.0 0.0 16.290000149 0.0 0.0 0.0 29.1751946751" Properties=species:S:1:pos:R:3:initial_magmoms:R:1 pbc="T T T"
Si      -1.40252503       1.31940856       1.31422582       0.00000000
Si       1.37037509      -1.23750244       1.44554337       0.00000000
Si       1.33000847       1.39833361      -1.34249658       0.00000000
Si      -1.39250668      -1.37503891      -1.31154170       0.00000000
Si       2.56770639      -2.64067418      -0.02987540       0.00000000
Si      -0.11211756       2.72782568       2.63405328       0.00000000
Si       2.62815858       0.04023630      -2.76009012       0.00000000
Si       0.00314723      -2.66528837       2.74488984       0.00000000
Si      -2.72564771       2.68990256      -0.02357356       0.00000000
Si      -2.73301079      -0.01047447      -2.68761893       0.00000000
