10
Lattice="16.290000149 0.0 0.0 0.0 16.290000149 0.0 0.0 0.0 29.1751946751" Properties=species:S:1:pos:R:3:initial_magmoms:R:1 pbc="T T T"
Si      -0.59781043       0.44763291      -2.14816667       0.00000000
Si      -1.91788688      -0.78638347       1.10641674       0.00000000
Si       0.85006108       1.93306916       1.05390139       0.00000000
Si       1.69945427      -1.67239658      -0.12089004       0.00000000
H       -1.20922300      -2.64417653      -0.73658322       0.00000000
Si       2.16533198       0.67056157       2.52485927       0.00000000
Si      -0.67145752      -2.15410817       2.53638056       0.00000000
Si       3.42179598      -0.72964540       1.15752001       0.00000000
Si       0.82624510      -3.39731374       1.26149457       0.00000000
Si      -2.39010140       1.99168058      -2.12435971       0.00000000
