10
Lattice="16.290000149 0.0 0.0 0.0 16.290000149 0.0 0.0 0.0 29.1751946751" Properties=species:S:1:pos:R:3:initial_magmoms:R:1 pbc="T T T"
Si       1.57781683      -1.08667333       1.32242405       0.00000000
Si      -1.23458653      -1.13595058      -1.62301608       0.00000000
Si      -1.60195861      -0.07358193       1.78747665       0.00000000
Si       1.29399616       1.59337378      -1.27323467       0.00000000
H        0.93072916      -1.91169668       2.39954306       0.00000000
H       -0.50901363      -2.82157464       1.85058260       0.00000000
Si      -1.71760133       2.23184079       2.01939027       0.00000000
Si      -2.64930788      -2.46335753      -0.38508339       0.00000000
Si       2.81476542      -2.45249210      -0.09388578       0.00000000
Si       0.12758328      -2.50603733      -2.88373459       0.00000000
