10
Lattice="16.290000149 0.0 0.0 0.0 16.290000149 0.0 0.0 0.0 29.1751946751" Properties=species:S:1:pos:R:3:initial_magmoms:R:1 pbc="T T T"
Si       0.84279574      -1.84837745       1.12683354       0.00000000
Si      -1.71988193       0.75761533       1.37896558       0.00000000
Si      -1.06412797      -0.08159661      -2.10857884       0.00000000
Si       1.80289577       1.58970853       0.12396540       0.00000000
H        2.33038226       1.84059083      -1.26535737       0.00000000
H       -1.14956902      -3.01298214      -1.05690060       0.00000000
Si       2.56425779      -2.26442405      -0.40133398       0.00000000
Si      -0.36590598       2.10918035       2.71895309       0.00000000
H        1.66415384       0.93015901      -2.90369043       0.00000000
Si      -0.58904641       2.12775095      -2.71323475       0.00000000
