10
Lattice="16.290000149 0.0 0.0 0.0 16.290000149 0.0 0.0 0.0 29.1751946751" Properties=species:S:1:pos:R:3:initial_magmoms:R:1 pbc="T T T"
Si      -1.33952671      -1.34978941       1.37152590       0.00000000
Si       1.32260140      -1.37098270      -1.37406414       0.00000000
Si      -1.36065484       1.32478426      -1.39107328       0.00000000
Si       1.34408791       1.32677164       1.40767397       0.00000000
Si       2.69926931       2.67415013       0.01435420       0.00000000
Si       2.62777250      -2.75113668      -0.00017505       0.00000000
Si      -2.73184931       0.00302994       2.68461389       0.00000000
Si      -2.73357606       2.68390784      -0.07039974       0.00000000
Si       2.67630041      -0.02272455      -2.74710716       0.00000000
Si      -0.00765630       2.69996978      -2.73359904       0.00000000
