10
Lattice="16.290000149 0.0 0.0 0.0 16.290000149 0.0 0.0 0.0 29.1751946751" Properties=species:S:1:pos:R:3:initial_magmoms:R:1 pbc="T T T"
Si       1.34094394       1.33340167      -1.37254703       0.00000000
Si      -1.43918893       1.37062432       1.23122239       0.00000000
Si       1.34267068      -1.34747623       1.38246660       0.00000000
Si      -1.38360745      -1.34890975      -1.34083360       0.00000000
Si      -0.15794784      -2.71008587       2.54372687       0.00000000
Si       2.70097976       2.64054386       0.01750512       0.00000000
Si      -0.01399311      -2.73579150      -2.65182097       0.00000000
Si      -2.81233821       0.05103657       2.58956110       0.00000000
Si       2.71386515      -0.02572191      -2.69322057       0.00000000
Si      -0.01606194       2.66778074      -2.75017055       0.00000000
