10
Lattice="16.290000149 0.0 0.0 0.0 16.290000149 0.0 0.0 0.0 29.1751946751" Properties=species:S:1:pos:R:3:initial_magmoms:R:1 pbc="T T T"
Si      -1.37090125       1.35671266       1.33237279       0.00000000
Si      -1.37376829      -1.34698753      -1.34258411       0.00000000
Si       1.34941474       1.36489024      -1.35641315       0.00000000
Si       1.36945144      -1.34415307       1.36347355       0.00000000
Si      -0.00319284       2.71443530       2.66112786       0.00000000
Si      -0.01373247      -2.70339231      -2.68213400       0.00000000
Si       2.71964810      -2.69383497      -0.00886926       0.00000000
Si       2.72003906       0.01909188      -2.69485438       0.00000000
Si      -2.70332552       0.02262681      -2.71530619       0.00000000
Si      -2.71779104      -2.70274560       0.02231902       0.00000000
