10
Lattice="16.290000149 0.0 0.0 0.0 16.290000149 0.0 0.0 0.0 29.1751946751" Properties=species:S:1:pos:R:3:initial_magmoms:R:1 pbc="T T T"
Si       1.29138976      -1.41138190       1.35968077       0.00000000
Si      -1.33402069       1.06995979       1.62021526       0.00000000
Si       1.32064660       1.32654358      -1.43959163       0.00000000
Si      -1.40965516      -1.36537894      -1.31699746       0.00000000
H       -2.51595794       1.58399074       0.81748895       0.00000000
Si       2.71519442       0.02422323       2.52794309       0.00000000
Si      -0.35290656      -2.46417203       2.78713552       0.00000000
Si      -2.03525633      -0.78698620       3.04025951       0.00000000
H       -1.88651234       3.23783301      -0.28396217       0.00000000
Si       2.61105408       2.73496071      -0.11976417       0.00000000
