10
Lattice="16.290000149 0.0 0.0 0.0 16.290000149 0.0 0.0 0.0 29.1751946751" Properties=species:S:1:pos:R:3:initial_magmoms:R:1 pbc="T T T"
Si       1.34975683       1.39458616      -1.31257450       0.00000000
Si      -1.32431185       1.34908894       1.38579257       0.00000000
Si      -1.33951042      -1.32414895      -1.40276087       0.00000000
Si       1.38373777      -1.35580042       1.34165050       0.00000000
Si       2.67199985      -0.09467748      -2.51852534       0.00000000
Si       0.02104668      -2.72044631       2.66938444       0.00000000
Si       2.71117730       2.67974412       0.09449846       0.00000000
Si      -0.03433932       2.71850780      -2.67868549       0.00000000
Si      -2.71161713      -0.01120752       2.68846501       0.00000000
Si      -2.69640227       2.70831678       0.07305469       0.00000000
