10
Lattice="16.290000149 0.0 0.0 0.0 16.290000149 0.0 0.0 0.0 29.1751946751" Properties=species:S:1:pos:R:3:initial_magmoms:R:1 pbc="T T T"
H        1.18838809       0.37137942       0.89754569       0.00000000
Si       0.84725920       1.48279726      -1.63526966       0.00000000
Si      -0.78278664      -2.11237319       1.16175625       0.00000000
Si       0.54218007      -2.38335734      -0.74037892       0.00000000
Si      -2.20548683       1.42498405       1.03674054       0.00000000
H        2.63674829      -1.66790054       1.35781356       0.00000000
Si      -3.42231726      -0.15687270      -0.38438319       0.00000000
H       -1.87708043      -1.53567460      -2.49847615       0.00000000
Si      -0.28352745      -1.20702385       3.26029883       0.00000000
Si       1.27382914       3.30276495      -0.15413255       0.00000000
