10
Lattice="16.290000149 0.0 0.0 0.0 16.290000149 0.0 0.0 0.0 29.1751946751" Properties=species:S:1:pos:R:3:initial_magmoms:R:1 pbc="T T T"
Si       1.33976618      -1.35886294       1.36230654       0.00000000
Si      -1.35329665      -1.35231436      -1.36008923       0.00000000
Si      -1.32669508       1.34917039       1.39536204       0.00000000
Si       1.35792953       1.35294967      -1.36166469       0.00000000
Si      -2.66947979       2.70664868       0.02605345       0.00000000
Si       2.69124975       0.02687850       2.68508069       0.00000000
Si       0.03382293      -2.71423982      -2.68195895       0.00000000
Si      -2.69013551      -2.71078634       0.01954738       0.00000000
Si      -2.69832938       0.02814912      -2.71516032       0.00000000
Si       2.69928072       2.71459820       0.00291752       0.00000000
