10
Lattice="16.290000149 0.0 0.0 0.0 16.290000149 0.0 0.0 0.0 29.1751946751" Properties=species:S:1:pos:R:3:initial_magmoms:R:1 pbc="T T T"
Si      -1.36269109      -1.36464589       1.32773393       0.00000000
Si       1.33705063      -1.44057358      -1.28732629       0.00000000
Si       1.38261376       1.34361550       1.35361233       0.00000000
Si      -1.38373777       1.35580042      -1.34165050       0.00000000
Si       2.69348636      -0.10533114      -2.60780435       0.00000000
Si       0.02158425      -2.70417260       2.67591968       0.00000000
Si      -2.71292033      -0.00055386       2.68312595       0.00000000
Si      -0.03398094       2.75038659      -2.65422501       0.00000000
Si      -2.70804962       2.70488936       0.04414207       0.00000000
Si      -2.69923673      -2.71526609      -0.06511903       0.00000000
