10
Lattice="16.290000149 0.0 0.0 0.0 16.290000149 0.0 0.0 0.0 29.1751946751" Properties=species:S:1:pos:R:3:initial_magmoms:R:1 pbc="T T T"
Si      -1.34534224       1.34467435      -1.36659529       0.00000000
Si      -1.35422029      -1.37181349       1.34608513       0.00000000
Si       1.34314309      -1.30344436      -1.42325352       0.00000000
Si       1.35870004       1.34713414       1.36697457       0.00000000
Si      -2.76651444      -0.11588706      -2.59099944       0.00000000
Si       0.11142360       2.78225628      -2.58393904       0.00000000
Si      -2.69985575       2.67618638       0.03185931       0.00000000
Si       2.69127092      -2.68768712      -0.06065523       0.00000000
Si      -2.70912476      -0.01783755       2.71060899       0.00000000
Si       0.00868257      -2.71094924       2.71037559       0.00000000
