10
Lattice="16.290000149 0.0 0.0 0.0 16.290000149 0.0 0.0 0.0 29.1751946751" Properties=species:S:1:pos:R:3:initial_magmoms:R:1 pbc="T T T"
Si       1.34643367       1.32979507      -1.34666572       0.00000000
Si      -1.35557236       1.39651891       1.28770557       0.00000000
Si       1.37209042      -1.35922784       1.31273788       0.00000000
Si      -1.30153843      -1.32379709      -1.42792739       0.00000000
Si      -2.67959914       0.01185749       2.64823242       0.00000000
Si      -0.01521486      -2.71952430       2.61541033       0.00000000
Si       0.03930777       2.73915701       2.61523528       0.00000000
Si       2.72890083       0.01313789       2.64840747       0.00000000
Si      -2.57651439       0.05041755      -2.81776072       0.00000000
Si      -2.65102974       2.74839344      -0.14371701       0.00000000
