10
Lattice="16.290000149 0.0 0.0 0.0 16.290000149 0.0 0.0 0.0 29.1751946751" Properties=species:S:1:pos:R:3:initial_magmoms:R:1 pbc="T T T"
Si       1.36761067      -1.35752716       1.32688785       0.00000000
Si       1.36782244       1.34460919      -1.34205896       0.00000000
Si      -1.34135119      -1.36164853      -1.36458221       0.00000000
Si      -1.31758408       1.36319608       1.38987710       0.00000000
Si      -0.01461213       2.68975595      -2.67837040       0.00000000
Si      -0.00803097      -2.68771970       2.68216317       0.00000000
Si       2.71681364       0.00415395       2.67419834       0.00000000
Si      -2.69928072      -2.71459820      -0.00291752       0.00000000
Si       2.71805168      -0.01948284      -2.69745097       0.00000000
Si      -2.69198117      -0.00276930      -2.72496318       0.00000000
