10
Lattice="16.290000149 0.0 0.0 0.0 16.290000149 0.0 0.0 0.0 29.1751946751" Properties=species:S:1:pos:R:3:initial_magmoms:R:1 pbc="T T T"
Si      -1.36321237      -0.58264444      -0.27118343       0.00000000
H        0.88998787      -1.78023638      -0.46163911       0.00000000
H        1.55621629      -0.86980456       1.17669395       0.00000000
Si       1.02872980      -1.12068685       2.56601672       0.00000000
Si      -2.73838161       0.75794113       1.05506257       0.00000000
Si      -1.84959920      -0.16837344      -2.48286742       0.00000000
Si       2.02548233      -1.85075579      -1.46013097       0.00000000
H        2.74844883       0.91346176       1.51982342       0.00000000
Si      -1.20603016       2.07673067       2.24564391       0.00000000
Si      -0.02508660       1.12694221      -3.12583036       0.00000000
