10
Lattice="16.290000149 0.0 0.0 0.0 16.290000149 0.0 0.0 0.0 29.1751946751" Properties=species:S:1:pos:R:3:initial_magmoms:R:1 pbc="T T T"
Si       1.34684907      -1.36035022       1.35507109       0.00000000
Si      -1.31457141      -1.38289558      -1.36461138       0.00000000
Si      -1.37924988       1.34864423       1.34051267       0.00000000
Si       1.32402678       1.38466142      -1.36052685       0.00000000
Si      -2.63146219       0.05087693      -2.64248491       0.00000000
Si       2.67959914      -0.01185749      -2.64823242       0.00000000
Si      -0.00796581       2.71728117       2.66497898       0.00000000
Si       2.66438428      -2.73138179      -0.03282209       0.00000000
Si       2.70444139       0.00192711       2.70462807       0.00000000
Si      -0.02784287      -2.70914594       2.70532828       0.00000000
