10
Lattice="16.290000149 0.0 0.0 0.0 16.290000149 0.0 0.0 0.0 29.1751946751" Properties=species:S:1:pos:R:3:initial_magmoms:R:1 pbc="T T T"
Si       1.31439124       1.35653347      -1.38544247       0.00000000
Si      -1.38297214       1.48120084       1.21759757       0.00000000
Si       1.59879835      -1.30564351       1.21044965       0.00000000
Si      -1.50175882      -1.34017831      -1.30448130       0.00000000
Si      -1.68805127      -2.38495376       2.11248832       0.00000000
Si      -2.23023134      -0.00159642       2.85286724       0.00000000
Si       2.37275255      -0.10790496      -2.86447896       0.00000000
Si       3.47224611       0.15175764       1.37213858       0.00000000
Si       3.12794067       2.10481463       0.00029175       0.00000000
H        2.07519941       1.05024889       3.00431567       0.00000000
