10
Lattice="16.290000149 0.0 0.0 0.0 16.290000149 0.0 0.0 0.0 29.1751946751" Properties=species:S:1:pos:R:3:initial_magmoms:R:1 pbc="T T T"
Si      -1.41472135      -1.32740695       1.23793269       0.00000000
Si       1.36216981      -1.37008675      -1.26071851       0.00000000
Si       1.23458653       1.13595058       1.62301608       0.00000000
Si      -1.39595527       1.45081999      -1.19241938       0.00000000
Si      -0.36737208       1.06236865       3.41049273       0.00000000
Si       2.69889464       0.07866441      -2.51589374       0.00000000
Si      -2.49684977       0.09365121       2.73482440       0.00000000
Si      -0.05913270      -2.67866246      -2.57418578       0.00000000
Si       2.52858269       2.72932437       0.34978141       0.00000000
Si      -0.12044826      -2.62037684       2.66608764       0.00000000
