10
Lattice="16.290000149 0.0 0.0 0.0 16.290000149 0.0 0.0 0.0 29.1751946751" Properties=species:S:1:pos:R:3:initial_magmoms:R:1 pbc="T T T"
Si      -1.28055691      -0.03925890      -0.82612481       0.00000000
Si       2.33344478      -0.20365758      -0.91925203       0.00000000
Si       2.16437087       0.21364335       1.43626566       0.00000000
Si       1.46469907       1.87489757      -1.70636961       0.00000000
H        1.34890975       2.67173921      -0.41916002       0.00000000
Si       0.64611028      -1.16574010       2.72175391       0.00000000
Si      -2.64787762      -1.42424774       0.51006993       0.00000000
Si      -0.80418844      -2.60338637       1.44458059       0.00000000
Si      -0.66854161      -1.56563680      -2.57526526       0.00000000
Si      -2.07062518       2.22726656      -0.61521733       0.00000000
