10
Lattice="10.86 0.0 0.0 0.0 10.86 0.0 0.0 0.0 10.86" Properties=species:S:1:pos:R:3:initial_magmoms:R:1 pbc="T T T"
Si       1.48891686      -1.39499958      -1.19012568       0.00000000
Si      -1.22608314      -1.39499958       1.52487432       0.00000000
Si       1.48891686       1.32000042       1.52487432       0.00000000
Si      -1.16231322       1.91477004      -1.73870772       0.00000000
Si      -2.43959040       2.61270966       0.12980958       0.00000000
Si      -2.57538384       0.13130826      -2.57758842       0.00000000
Si       0.13141686      -2.75249958      -2.54762568       0.00000000
Si      -2.58358314      -2.75249958       0.16737432       0.00000000
Si      -2.58358314      -0.03749958       2.88237432       0.00000000
Si       0.13141686       2.67750042       2.88237432       0.00000000
