10
Lattice="10.86 0.0 0.0 0.0 10.86 0.0 0.0 0.0 10.86" Properties=species:S:1:pos:R:3:initial_magmoms:R:1 pbc="T T T"
Si      -1.31809992      -1.35515424       1.31220294       0.00000000
Si       1.39690008       1.35984576       1.31220294       0.00000000
Si      -1.31809992       1.35984576      -1.40279706       0.00000000
Si       1.29387126      -1.76379432      -0.90230310       0.00000000
Si       2.48919888       0.04437396      -2.48134710       0.00000000
Si      -2.67559992       0.00234576       2.66970294       0.00000000
Si       0.03940008       2.71734576       2.66970294       0.00000000
Si      -2.67559992      -2.71265424      -0.04529706       0.00000000
Si       2.71420722      -0.01013238       2.67594744       0.00000000
Si      -2.67559992       2.71734576      -0.04529706       0.00000000
