10
Lattice="10.86 0.0 0.0 0.0 10.86 0.0 0.0 0.0 10.86" Properties=species:S:1:pos:R:3:initial_magmoms:R:1 pbc="T T T"
Si      -1.27727718       0.69793962       1.86851730       0.00000000
Si      -0.16679874       1.71159030      -1.66592400       0.00000000
Si      -1.41307062      -1.78346178      -0.83888070       0.00000000
Si       1.16231322      -1.91477004       1.73870772       0.00000000
Si      -2.77876992       2.12023038       0.54858204       0.00000000
Si      -2.77876992      -0.59476962      -2.16641796       0.00000000
Si      -1.21465842       0.54495480      -3.48209610       0.00000000
Si      -1.46067000       3.47538462      -0.76362090       0.00000000
Si      -0.06376992       2.12023038       3.26358204       0.00000000
Si      -0.06376992      -3.30976962      -2.16641796       0.00000000
