10
Lattice="16.28999089631971 0.0 0.0 0.0 16.28999089631971 0.0 0.0 0.0 34.3005442915855" Properties=species:S:1:pos:R:3:initial_magmoms:R:1 pbc="T T T"
Si       1.35589815       1.35700164       1.35768490       0.00000000
Si      -1.35843939      -1.35813478       1.35734190       0.00000000
Si       1.35488817      -1.35922621      -1.36001734       0.00000000
Si      -1.35679410       1.35561373      -1.36186957       0.00000000
Si       2.71430496       2.71443756      -0.00157783       0.00000000
Si       2.71409319      -0.00089160       2.71502680       0.00000000
Si      -2.71498914      -2.71422841      -0.00116622       0.00000000
Si      -0.00143352       2.71438869       2.71485530       0.00000000
Si       2.71396287      -2.71642756       0.00017150       0.00000000
Si      -0.00138465      -2.71572709       2.71499250       0.00000000
