10
Lattice="16.28999089631971 0.0 0.0 0.0 16.28999089631971 0.0 0.0 0.0 34.3005442915855" Properties=species:S:1:pos:R:3:initial_magmoms:R:1 pbc="T T T"
Si      -2.03699934      -0.24063588      -1.17764125       0.00000000
Si      -0.65647071       2.28082806       0.15349502       0.00000000
Si       0.52711182      -0.51640929       2.28181068       0.00000000
Si       1.53824841      -1.08476739      -1.57617949       0.00000000
Si       2.87930637       0.83287512      -0.95674562       0.00000000
Si      -2.12164218       1.66110759       1.97386022       0.00000000
Si      -2.08168281       2.01901518      -2.01635862       0.00000000
Si      -1.52500464      -1.86294069      -2.73231428       0.00000000
Si       1.37075463       3.49415613       0.43541135       0.00000000
Si       3.02868567       1.96636590       1.12155982       0.00000000
