10
Lattice="16.28999089631971 0.0 0.0 0.0 16.28999089631971 0.0 0.0 0.0 34.3005442915855" Properties=species:S:1:pos:R:3:initial_magmoms:R:1 pbc="T T T"
Si       1.25014347      -0.03220533      -2.02548257       0.00000000
Si       0.57537909      -2.18036274       0.84996796       0.00000000
Si       1.34105796       1.91764251       0.61943388       0.00000000
Si      -1.53824841       1.08476739       1.57617949       0.00000000
Si      -3.06325305      -0.77817330      -1.15613479       0.00000000
Si       3.20417784       1.05577119      -0.45269884       0.00000000
Si      -0.32868333       2.75214663      -2.06695195       0.00000000
Si      -3.57524775       0.84413151       0.39853825       0.00000000
Si       1.81824093      -2.29872100      -2.34193957       0.00000000
Si      -1.45152045      -3.37306346       1.19619785       0.00000000
