10
Lattice="16.28999089631971 0.0 0.0 0.0 16.28999089631971 0.0 0.0 0.0 34.3005442915855" Properties=species:S:1:pos:R:3:initial_magmoms:R:1 pbc="T T T"
Si       0.49541148      -1.27881387      -1.87366729       0.00000000
Si       1.79486478       0.98347617       1.21060649       0.00000000
Si      -1.08279630      -1.96786458       1.02196025       0.00000000
Si      -1.52691057       1.97118774      -0.18549646       0.00000000
Si      -2.29004820      -0.44732340       2.54490870       0.00000000
Si       0.43199451       2.31510222       2.57127897       0.00000000
Si      -1.50302943      -0.83028501      -3.04798138       0.00000000
Si      -3.44407090       1.05873597       1.12033426       0.00000000
Si      -0.56172807       3.82797081       1.01931225       0.00000000
Si       3.38887386       2.17722366      -0.21794479       0.00000000
