10
Lattice="16.28999089631971 0.0 0.0 0.0 16.28999089631971 0.0 0.0 0.0 34.3005442915855" Properties=species:S:1:pos:R:3:initial_magmoms:R:1 pbc="T T T"
Si      -1.34985456      -1.33799544      -1.37658451       0.00000000
Si       1.36238157       1.37780820      -1.37291435       0.00000000
Si      -1.44606330       1.32108642       1.37661881       0.00000000
Si       1.48937841      -1.27915596       1.46343354       0.00000000
Si       0.32417100       1.98972576       2.86282793       0.00000000
Si       2.36550348       0.50332842       2.92209930       0.00000000
Si      -2.70526401      -2.68988625       0.01152499       0.00000000
Si      -2.69164557       2.73805578      -0.02579402       0.00000000
Si       0.00444717      -2.69619048      -2.73478392       0.00000000
Si      -2.70822879       0.01930365      -2.73522983       0.00000000
