10
Lattice="16.28999089631971 0.0 0.0 0.0 16.28999089631971 0.0 0.0 0.0 34.3005442915855" Properties=species:S:1:pos:R:3:initial_magmoms:R:1 pbc="T T T"
Si       0.65647071      -2.28082806      -0.15349502       0.00000000
Si       2.02722534       1.21332807       0.28191633       0.00000000
Si      -1.46517147      -0.61972047       1.82036520       0.00000000
Si      -1.42521210      -0.26181288      -2.16985364       0.00000000
Si      -1.38052863      -2.52146394      -1.33113627       0.00000000
Si       2.73753450       0.65687796      -1.95725875       0.00000000
Si      -1.96835328       1.50583131       2.53505174       0.00000000
Si      -2.43343278       2.58870906       0.39109502       0.00000000
Si      -3.21655335       1.08053199      -1.38612007       0.00000000
Si       1.18358253      -2.79723735       2.12831566       0.00000000
