10
Lattice="16.28999089631971 0.0 0.0 0.0 16.28999089631971 0.0 0.0 0.0 34.3005442915855" Properties=species:S:1:pos:R:3:initial_magmoms:R:1 pbc="T T T"
Si       0.35026758      -1.36620972      -1.85504307       0.00000000
Si       1.04560623       2.07115947      -0.29790039       0.00000000
Si       0.96531282      -1.46223927       1.61099456       0.00000000
Si      -2.11338315       0.77535513       0.78380218       0.00000000
Si      -1.58105853       0.90196101       3.10125114       0.00000000
Si      -0.57409218      -1.22026761       3.37126518       0.00000000
Si      -0.78133356       3.35718981      -1.24620807       0.00000000
Si       2.30796720      -2.55262671      -1.27327122       0.00000000
Si      -3.35758077      -1.18196982       0.91116017       0.00000000
Si       1.58975739       2.83926555       1.91191341       0.00000000
