10
Lattice="16.28999089631971 0.0 0.0 0.0 16.28999089631971 0.0 0.0 0.0 34.3005442915855" Properties=species:S:1:pos:R:3:initial_magmoms:R:1 pbc="T T T"
Si       0.86936472      -2.02450491       0.74692907       0.00000000
Si      -1.84402800      -0.40749435       1.38780080       0.00000000
Si       1.54065933       1.83977631      -0.13613894       0.00000000
Si      -0.70576425      -0.09487296      -2.30036729       0.00000000
Si      -1.35786924      -2.90004354       1.36118356       0.00000000
Si      -1.71273060       2.02735566      -2.57038132       0.00000000
Si      -3.84246891       0.04103451       0.21348671       0.00000000
Si       2.35423080      -2.91608919      -0.89788585       0.00000000
Si       2.87700948       2.12537259       1.73626022       0.00000000
Si      -2.33943948       0.87131952       3.26146809       0.00000000
