10
Lattice="16.28999089631971 0.0 0.0 0.0 16.28999089631971 0.0 0.0 0.0 34.3005442915855" Properties=species:S:1:pos:R:3:initial_magmoms:R:1 pbc="T T T"
Si       0.00663003       0.81156454       2.16995655       0.00000000
Si      -1.65977018      -1.41295617      -0.82612907       0.00000000
Si       1.96579575      -1.28208231       0.08863266       0.00000000
Si      -0.94781573       1.69884826      -1.43273454       0.00000000
Si      -2.93649146       0.39965560      -1.66340583       0.00000000
Si       1.36831113       2.71821130       1.88738850       0.00000000
Si      -0.82569123      -2.24350182      -2.88327106       0.00000000
Si       0.72301536       2.44947517      -2.85782005       0.00000000
Si       1.59863544      -3.16440810       1.58214779       0.00000000
Si       3.77185176      -0.05232837       0.98648421       0.00000000
