10
Lattice="16.28999089631971 0.0 0.0 0.0 16.28999089631971 0.0 0.0 0.0 34.3005442915855" Properties=species:S:1:pos:R:3:initial_magmoms:R:1 pbc="T T T"
Si      -1.33828866      -1.35343836       1.35243692       0.00000000
Si      -1.35534429       1.35573525      -1.35699889       0.00000000
Si       1.35987291      -1.35654975      -1.35566117       0.00000000
Si       1.36482507       1.34985456       1.37641301       0.00000000
Si      -2.62915713      -0.00754227       2.74991047       0.00000000
Si      -2.71186146       2.71164969       0.00246964       0.00000000
Si      -2.71251306      -0.00076563      -2.71386058       0.00000000
Si       0.00179190       2.71446786      -2.71314027       0.00000000
Si       0.00184077      -2.71494027      -2.71300307       0.00000000
Si      -2.70918990      -2.71907793       0.00415037       0.00000000
