10
Lattice="16.28999089631971 0.0 0.0 0.0 16.28999089631971 0.0 0.0 0.0 34.3005442915855" Properties=species:S:1:pos:R:3:initial_magmoms:R:1 pbc="T T T"
Si      -1.46541582      -1.93984578      -0.35353591       0.00000000
Si      -1.34265438       1.79002665       1.15061240       0.00000000
Si       1.27001727      -0.06592563      -2.17270059       0.00000000
Si       1.41537294      -1.92412593       1.61696286       0.00000000
Si       0.54387423      -3.19445271      -0.22240485       0.00000000
Si       3.22831962       1.18864872       0.44100234       0.00000000
Si      -2.42851320      -1.43668026      -2.40518981       0.00000000
Si      -0.50021703      -0.73456497      -3.65890971       0.00000000
Si       0.26492427       3.54564882       1.33755047       0.00000000
Si       3.55721472      -1.13749812       0.81518719       0.00000000
