10
Lattice="16.28999089631971 0.0 0.0 0.0 16.28999089631971 0.0 0.0 0.0 34.3005442915855" Properties=species:S:1:pos:R:3:initial_magmoms:R:1 pbc="T T T"
Si       1.45182996      -1.21780782       1.35470075       0.00000000
Si       1.21785669      -0.17389575      -2.00980722       0.00000000
Si      -0.96865227       1.84476105       1.18165441       0.00000000
Si      -0.51504093       3.01496949      -0.90821032       0.00000000
Si      -2.32137387       1.83057246      -1.96528508       0.00000000
Si       1.94305491      -2.42657469      -1.82496148       0.00000000
Si      -2.49877197       0.43293933       2.59195779       0.00000000
Si      -3.49958070      -0.46874475      -0.88546905       0.00000000
Si      -0.14217912      -2.41155531       2.78325203       0.00000000
Si       2.61275310       0.27925947       2.73931301       0.00000000
