10
Lattice="16.28999089631971 0.0 0.0 0.0 16.28999089631971 0.0 0.0 0.0 34.3005442915855" Properties=species:S:1:pos:R:3:initial_magmoms:R:1 pbc="T T T"
Si       2.06842927      -0.68046588      -0.78613461       0.00000000
Si       0.24295069       1.38958587       1.84077404       0.00000000
Si      -0.93429733       1.46704482      -1.55580496       0.00000000
Si      -0.94355005      -1.90690577       1.13329062       0.00000000
Si      -2.07889789       1.16664093       2.10375646       0.00000000
Si       0.91824938      -1.93328417       2.58022559       0.00000000
Si      -3.46863037       0.25958115       0.32551235       0.00000000
Si       2.71574500      -1.99049791       1.07230421       0.00000000
Si      -3.01943362      -1.39696361      -1.33508083       0.00000000
Si      -2.15793697       0.00726534      -2.97324144       0.00000000
