10
Lattice="16.28999089631971 0.0 0.0 0.0 16.28999089631971 0.0 0.0 0.0 34.3005442915855" Properties=species:S:1:pos:R:3:initial_magmoms:R:1 pbc="T T T"
Si       2.21144895      -0.34016778      -0.82592327       0.00000000
Si      -0.99238680       0.38757168       2.13613619       0.00000000
Si      -1.50278508      -1.95046686      -0.26068428       0.00000000
Si      -0.76323537       1.76082912      -1.60029279       0.00000000
Si      -1.00709667       2.61484541       1.41359482       0.00000000
Si       2.24461539      -2.61788445      -0.34472066       0.00000000
Si      -3.28955699      -0.72285246      -1.31172215       0.00000000
Si      -2.07549261       0.39232836      -3.01402481       0.00000000
Si       0.94683996      -2.06162982      -2.95581676       0.00000000
Si      -2.55433716       2.71719548      -0.35116917       0.00000000
