10
Lattice="16.28999089631971 0.0 0.0 0.0 16.28999089631971 0.0 0.0 0.0 34.3005442915855" Properties=species:S:1:pos:R:3:initial_magmoms:R:1 pbc="T T T"
Si      -1.79749561       0.05721374       1.50792137       0.00000000
Si      -0.00794952      -2.32963357      -0.32043586       0.00000000
Si      -0.64731573       1.31003203      -1.85843883       0.00000000
Si       2.13324066       0.59978477       0.83093115       0.00000000
Si      -2.71574500       1.99049791      -1.07230421       0.00000000
Si       1.42257312      -2.94156742       1.45595602       0.00000000
Si      -3.65929505       0.08359213       0.06098640       0.00000000
Si       1.76443506       2.74596295       1.79463978       0.00000000
Si       0.94468968      -2.66594062      -2.44624758       0.00000000
Si      -1.62637894       2.19720172       2.60149194       0.00000000
