10
Lattice="16.28999089631971 0.0 0.0 0.0 16.28999089631971 0.0 0.0 0.0 34.3005442915855" Properties=species:S:1:pos:R:3:initial_magmoms:R:1 pbc="T T T"
Si       0.58981203      -0.89632534       2.08327902       0.00000000
Si      -0.56809746       2.26651567       0.31645700       0.00000000
Si       1.44311481       0.17908900      -1.89054416       0.00000000
Si      -1.66294836      -1.43446549      -1.05371331       0.00000000
Si      -0.41785479      -0.63350248      -3.20833750       0.00000000
Si      -1.24286184       0.11835825       3.19190753       0.00000000
Si      -1.81824093       2.29872100       2.34193957       0.00000000
Si       2.61741204      -0.09049095       2.97577968       0.00000000
Si      -3.87439731      -1.09429771      -0.22779004       0.00000000
Si       1.08051570      -3.24693976       2.15527591       0.00000000
