10
Lattice="16.28999089631971 0.0 0.0 0.0 16.28999089631971 0.0 0.0 0.0 34.3005442915855" Properties=species:S:1:pos:R:3:initial_magmoms:R:1 pbc="T T T"
Si       2.07671436       0.78662455       0.60372422       0.00000000
Si      -0.48293334      -1.15565725       1.95863077       0.00000000
Si      -0.27447021      -1.54914220      -1.76177984       0.00000000
Si      -1.56895506       1.52811114      -0.90615229       0.00000000
Si      -2.54586636      -2.05488154      -1.05920140       0.00000000
Si      -2.12898897      -2.55659725       1.18577048       0.00000000
Si      -3.42945225       0.12900540      -1.25553782       0.00000000
Si      -0.39812760      -0.09231054      -3.63980429       0.00000000
Si       1.47136167      -2.44030294       2.31168647       0.00000000
Si       3.24265482      -1.12079665       1.36886689       0.00000000
