10
Lattice="16.28999089631971 0.0 0.0 0.0 16.28999089631971 0.0 0.0 0.0 34.3005442915855" Properties=species:S:1:pos:R:3:initial_magmoms:R:1 pbc="T T T"
Si       1.32504489       1.90461051       0.50504150       0.00000000
Si       1.43545851      -1.73823895      -0.78448819       0.00000000
Si      -1.27105983       0.26064000      -2.06437941       0.00000000
Si      -2.26255068       0.54477018       1.79748673       0.00000000
Si      -2.75592591       1.15222428      -0.41956449       0.00000000
Si       0.78548751      -2.24608868       1.86670526       0.00000000
Si       1.40928048      -0.34282468       3.21630351       0.00000000
Si       3.03088482       0.74038050       1.87013532       0.00000000
Si       1.56745638       2.81325042      -1.75262159       0.00000000
Si       0.13167207       1.77376923      -3.30300706       0.00000000
