10
Lattice="16.28999089631971 0.0 0.0 0.0 16.28999089631971 0.0 0.0 0.0 34.3005442915855" Properties=species:S:1:pos:R:3:initial_magmoms:R:1 pbc="T T T"
Si      -1.35685926      -1.35669636      -1.35747910       0.00000000
Si       1.35757602       1.35806472      -1.35754770       0.00000000
Si       1.36001952      -1.35953082       1.35912553       0.00000000
Si      -1.35821133       1.35987291       1.36104636       0.00000000
Si       0.00035838      -2.71402803      -2.71488960       0.00000000
Si      -2.71454931       0.00136836      -2.71471810       0.00000000
Si      -2.71614573      -2.71412577      -0.00082321       0.00000000
Si       0.00014661       2.71599912      -2.71454659       0.00000000
Si       2.71564074       0.00063531      -2.71502680       0.00000000
Si      -2.71407690       2.71700910       0.00006860       0.00000000
