10
Lattice="16.28999089631971 0.0 0.0 0.0 16.28999089631971 0.0 0.0 0.0 34.3005442915855" Properties=species:S:1:pos:R:3:initial_magmoms:R:1 pbc="T T T"
Si      -0.63522855      -1.18469025       1.84756555       0.00000000
Si       2.12591016       0.94548789       0.22480589       0.00000000
Si      -1.65793104       1.52779023      -0.68614847       0.00000000
Si      -0.14937930      -1.13349078      -2.07830544       0.00000000
Si      -0.94762188       0.97134012      -2.92532355       0.00000000
Si       1.32247107      -2.37110724       2.42933741       0.00000000
Si      -2.50157385      -2.48277519       1.16025086       0.00000000
Si       1.88955855       2.58126453       1.95314268       0.00000000
Si      -3.02868567      -1.96636590      -1.12155982       0.00000000
Si      -3.68515638       0.31446216      -0.96806480       0.00000000
