10
Lattice="16.28999089631971 0.0 0.0 0.0 16.28999089631971 0.0 0.0 0.0 34.3005442915855" Properties=species:S:1:pos:R:3:initial_magmoms:R:1 pbc="T T T"
Si      -1.65434724      -0.21181887      -1.68398616       0.00000000
Si       0.45292716      -2.39449968       0.15116258       0.00000000
Si      -1.13283918       0.45113526       2.17273489       0.00000000
Si       1.96602381       1.30683267      -1.09874995       0.00000000
Si       0.58850883       2.47376682      -2.71468379       0.00000000
Si      -0.51798942       0.52892001      -3.68837389       0.00000000
Si      -3.23312517       1.57587831      -1.42254727       0.00000000
Si       0.46894023       1.49542200       3.59001158       0.00000000
Si       3.18495564       2.18013957       0.83086255       0.00000000
Si       2.01640878      -2.80919421       1.94144619       0.00000000
