10
Lattice="16.28999089631971 0.0 0.0 0.0 16.28999089631971 0.0 0.0 0.0 34.3005442915855" Properties=species:S:1:pos:R:3:initial_magmoms:R:1 pbc="T T T"
Si      -1.06393248       0.59354244       1.98771765       0.00000000
Si       2.00068893       1.24045092      -0.37658589       0.00000000
Si       0.62859852      -2.33774532      -0.05271997       0.00000000
Si      -1.51272198      -0.46713204      -1.84629643       0.00000000
Si       0.15444549       0.56366658      -3.34245271       0.00000000
Si       1.11866688       2.40055956      -2.25190059       0.00000000
Si      -1.60692705      -3.01553964       0.77083656       0.00000000
Si       0.66057579       0.05087367       3.51007956       0.00000000
Si      -2.41289109      -1.32882417       2.30149921       0.00000000
Si      -1.55463615       2.94415686       1.91572077       0.00000000
