10
Lattice="16.28999089631971 0.0 0.0 0.0 16.28999089631971 0.0 0.0 0.0 34.3005442915855" Properties=species:S:1:pos:R:3:initial_magmoms:R:1 pbc="T T T"
Si      -1.35655348      -1.35817875      -1.35679309       0.00000000
Si       1.35754344      -1.35692442       1.35751340       0.00000000
Si       1.35711990       1.35826020      -1.35703319       0.00000000
Si      -1.35751417       1.35801585       1.35696459       0.00000000
Si      -0.00132438      -2.71256193      -2.71266006       0.00000000
Si      -2.71369313      -0.00115659       2.71410068       0.00000000
Si       2.71458189      -2.71404432      -0.00051451       0.00000000
Si      -2.71475198      -2.71422351      -0.00010290       0.00000000
Si       2.71580364       0.00118917       2.71348327       0.00000000
Si      -0.00010588       2.71586880       2.71416929       0.00000000
