10
Lattice="16.28999089631971 0.0 0.0 0.0 16.28999089631971 0.0 0.0 0.0 34.3005442915855" Properties=species:S:1:pos:R:3:initial_magmoms:R:1 pbc="T T T"
Si       1.29231828      -1.33882967      -1.37245130       0.00000000
Si       1.36505313       1.33994747       1.34779262       0.00000000
Si      -1.34944731      -1.37285948       1.35201159       0.00000000
Si      -1.18586313       1.44966551      -1.45213493       0.00000000
Si      -1.80965610      -0.45359849      -2.80173318       0.00000000
Si       2.05829037       0.47631031      -2.78108424       0.00000000
Si      -0.22133223      -2.51012954      -2.66296712       0.00000000
Si       0.43574121       2.53287069      -2.79830312       0.00000000
Si      -2.69407278       2.69204028      -0.01813814       0.00000000
Si       0.00985545       2.69886579       2.70866748       0.00000000
