10
Lattice="16.28999089631971 0.0 0.0 0.0 16.28999089631971 0.0 0.0 0.0 34.3005442915855" Properties=species:S:1:pos:R:3:initial_magmoms:R:1 pbc="T T T"
Si      -1.36505313      -1.33994747      -1.34779262       0.00000000
Si       1.35993807      -1.35462084       1.35943423       0.00000000
Si      -1.35519768       1.35891832       1.36087486       0.00000000
Si       1.35749457       1.38248995      -1.37647475       0.00000000
Si      -2.55091626       0.10971804      -2.79992755       0.00000000
Si       2.58689991      -0.03522061      -2.80553913       0.00000000
Si      -0.07273485      -2.67877714      -2.72024392       0.00000000
Si      -2.70855459       2.71199830      -0.00099472       0.00000000
Si      -2.71450044      -2.71280695       0.00421897       0.00000000
Si      -2.71277370       0.00129180       2.71667323       0.00000000
