10
Lattice="16.28999089631971 0.0 0.0 0.0 16.28999089631971 0.0 0.0 0.0 34.3005442915855" Properties=species:S:1:pos:R:3:initial_magmoms:R:1 pbc="T T T"
Si      -1.35335691       1.35307998      -1.36186957       0.00000000
Si      -1.35757602      -1.35762652       1.35579837       0.00000000
Si       1.35759231       1.35793440       1.35607278       0.00000000
Si       1.35519768      -1.35891832      -1.36087486       0.00000000
Si      -0.00985545      -2.69886579      -2.70866748       0.00000000
Si      -0.00026064      -2.71431068       2.71290017       0.00000000
Si       2.71467219       0.00000000       2.71314027       0.00000000
Si      -2.71487511       0.00042354       2.71338037       0.00000000
Si      -0.00009774       2.71498914       2.71334607       0.00000000
Si       2.71513575      -2.71353915      -0.00144062       0.00000000
