10
Lattice="16.28999089631971 0.0 0.0 0.0 16.28999089631971 0.0 0.0 0.0 34.3005442915855" Properties=species:S:1:pos:R:3:initial_magmoms:R:1 pbc="T T T"
Si      -1.35625161      -1.35702216      -1.35819941       0.00000000
Si       1.35896393       1.35821133      -1.35765060       0.00000000
Si      -1.35867138       1.36244673       1.35593557       0.00000000
Si       1.36095131      -1.35804843       1.36053185       0.00000000
Si      -2.71227264       2.71397916      -0.00106332       0.00000000
Si      -0.00749829      -2.71491095       2.71238566       0.00000000
Si      -0.01480924       2.72357397       2.70480523       0.00000000
Si      -2.71333149       0.00091224      -2.71526690       0.00000000
Si       0.00141560      -2.71420722      -2.71533551       0.00000000
Si      -2.71515597      -2.71497937      -0.00195513       0.00000000
