10
Lattice="16.28999089631971 0.0 0.0 0.0 16.28999089631971 0.0 0.0 0.0 34.3005442915855" Properties=species:S:1:pos:R:3:initial_magmoms:R:1 pbc="T T T"
Si      -2.07671436      -0.78662455      -0.60372422       0.00000000
Si       0.86149665       1.40422895      -1.63816061       0.00000000
Si       1.16594046      -1.90742121       0.76514267       0.00000000
Si      -0.44919675       1.65654476       1.66059318       0.00000000
Si       2.07588357      -0.50994216       2.46837145       0.00000000
Si      -2.55964770      -1.94228181       1.35490656       0.00000000
Si       2.08513629       2.86400843      -0.22072413       0.00000000
Si       3.01943362       1.39696361       1.33508083       0.00000000
Si      -0.60535269      -3.22692750       1.70796226       0.00000000
Si      -1.96120197       3.19539590       0.64440469       0.00000000
