10
Lattice="16.28999089631971 0.0 0.0 0.0 16.28999089631971 0.0 0.0 0.0 34.3005442915855" Properties=species:S:1:pos:R:3:initial_magmoms:R:1 pbc="T T T"
Si      -0.98539839      -0.95511528       1.89935940       0.00000000
Si      -1.51200522       1.53885114      -1.01618849       0.00000000
Si       0.44919675      -1.65654476      -1.66059318       0.00000000
Si       1.38973248       0.90705978       1.77824411       0.00000000
Si       2.53433304       1.20746367      -1.88131730       0.00000000
Si       2.52508032      -2.16648692       0.80777827       0.00000000
Si       0.85146201       3.09459501       1.24583077       0.00000000
Si       3.46863037      -0.25958115      -0.32551235       0.00000000
Si       1.31069340      -0.25231581      -3.29875379       0.00000000
Si      -1.38047976       3.26254491       0.54688818       0.00000000
