10
Lattice="16.28999089631971 0.0 0.0 0.0 16.28999089631971 0.0 0.0 0.0 34.3005442915855" Properties=species:S:1:pos:R:3:initial_magmoms:R:1 pbc="T T T"
Si       1.35360126      -1.35153243       1.35699889       0.00000000
Si      -1.35874890      -1.35601218      -1.35693029       0.00000000
Si       1.35617895       1.35917244      -1.35713609       0.00000000
Si      -1.36080144       1.36005210       1.36204107       0.00000000
Si       2.69746340       0.00959481       2.70586855       0.00000000
Si       2.71227264      -2.71397916       0.00106332       0.00000000
Si      -0.00105885      -2.71306692      -2.71420359       0.00000000
Si       2.71369313       0.00115659      -2.71410068       0.00000000
Si      -2.71469592      -2.71336014       0.00027440       0.00000000
Si      -2.71603170       0.00161271      -2.71437509       0.00000000
