10
Lattice="16.28999089631971 0.0 0.0 0.0 16.28999089631971 0.0 0.0 0.0 34.3005442915855" Properties=species:S:1:pos:R:3:initial_magmoms:R:1 pbc="T T T"
Si       1.34874684      -1.36127385       1.34979577       0.00000000
Si      -1.33229394      -1.36270737      -1.37109642       0.00000000
Si       1.38034944       1.35449721      -1.36907269       0.00000000
Si      -1.42439760       1.34597754       1.49351513       0.00000000
Si       0.41311440       2.21182362       2.71928007       0.00000000
Si       2.54237608       0.00343719       2.80417396       0.00000000
Si      -2.68607439      -2.69797423      -0.01015297       0.00000000
Si      -2.69516421       2.70816363       0.00898675       0.00000000
Si      -2.68794774      -0.00733050      -2.72579718       0.00000000
Si       0.02674818       2.70602964      -2.72607158       0.00000000
