10
Lattice="16.28999089631971 0.0 0.0 0.0 16.28999089631971 0.0 0.0 0.0 34.3005442915855" Properties=species:S:1:pos:R:3:initial_magmoms:R:1 pbc="T T T"
Si      -1.55277909       1.13850810      -1.34077473       0.00000000
Si       2.02491935       1.18786680       0.30030143       0.00000000
Si       0.54089316      -2.08230183      -1.02181379       0.00000000
Si      -1.14197787      -0.19517049       2.10533428       0.00000000
Si       2.95146197      -0.21269853       2.02781501       0.00000000
Si      -0.60370740      -2.38270572       2.63774763       0.00000000
Si       1.71814118      -2.15976078       2.37476521       0.00000000
Si       2.00694007      -1.40160789      -2.70487383       0.00000000
Si      -3.37391964      -0.02722059       1.40639170       0.00000000
Si       1.19823817       3.32995293       0.98041301       0.00000000
