10
Lattice="16.28999089631971 0.0 0.0 0.0 16.28999089631971 0.0 0.0 0.0 34.3005442915855" Properties=species:S:1:pos:R:3:initial_magmoms:R:1 pbc="T T T"
Si      -0.58078737      -1.08374112       1.99214243       0.00000000
Si      -1.91373291       1.22776101      -0.60708567       0.00000000
Si       0.68709591      -1.66368141      -1.55251210       0.00000000
Si       1.37187864       1.80568134       0.80805267       0.00000000
Si      -1.18245852       2.02784436      -2.72740930       0.00000000
Si      -0.44926191       0.63995265       3.55521910       0.00000000
Si       2.24191125      -2.87490807      -0.29042287       0.00000000
Si       2.92465773       0.66717324       2.14882740       0.00000000
Si      -0.20113263       2.75491593       2.44768821       0.00000000
Si       2.34626499       2.61583191      -1.22627944       0.00000000
