10
Lattice="16.28999089631971 0.0 0.0 0.0 16.28999089631971 0.0 0.0 0.0 34.3005442915855" Properties=species:S:1:pos:R:3:initial_magmoms:R:1 pbc="T T T"
Si       1.11808044       1.63636308      -1.22925502       0.00000000
Si       1.35619137      -1.31460300       1.40449488       0.00000000
Si      -1.60177941      -1.04428674      -1.41727668       0.00000000
Si      -1.35669636       1.41266880       1.41323467       0.00000000
Si      -3.18125781       0.99380403      -1.44073827       0.00000000
Si       2.62941777      -2.66427837      -0.17520728       0.00000000
Si      -2.67066405      -2.62866843       0.02691565       0.00000000
Si      -2.45576637       2.90758581      -0.05921306       0.00000000
Si      -0.00759114      -2.65732254       2.78129892       0.00000000
Si       2.63173095       2.80766295       0.06126081       0.00000000
