10
Lattice="16.28999089631971 0.0 0.0 0.0 16.28999089631971 0.0 0.0 0.0 34.3005442915855" Properties=species:S:1:pos:R:3:initial_magmoms:R:1 pbc="T T T"
Si       1.28195784       0.90297099      -1.75790388       0.00000000
Si      -1.79134125       1.34234487       0.78373357       0.00000000
Si       0.04468347      -2.25965106       0.83871738       0.00000000
Si       1.42521210       0.26181288       2.16985364       0.00000000
Si       2.08168281      -2.01901518       2.01635862       0.00000000
Si       3.29124789      -0.35163594      -1.62677282       0.00000000
Si      -1.00822068       2.85052194       2.56094867       0.00000000
Si       0.55667817      -3.88195587      -0.71595566       0.00000000
Si      -0.03995937      -0.35790759       3.99021885       0.00000000
Si      -3.55676579       0.26407719       1.93636971       0.00000000
