10
Lattice="16.28999089631971 0.0 0.0 0.0 16.28999089631971 0.0 0.0 0.0 34.3005442915855" Properties=species:S:1:pos:R:3:initial_magmoms:R:1 pbc="T T T"
Si       1.12580190      -0.42836184      -2.00565685       0.00000000
Si       0.57735018       2.25394956       0.50950057       0.00000000
Si      -2.38091382      -0.11148876      -0.31786332       0.00000000
Si       0.25594848      -1.94647581       1.43811972       0.00000000
Si      -1.19708694      -0.98380197       3.11898454       0.00000000
Si      -0.63076509      -1.06906383      -3.45711949       0.00000000
Si      -3.11533218      -0.89379972       1.81913038       0.00000000
Si      -2.60420085      -1.49858226      -2.24905365       0.00000000
Si      -3.02300046       2.13765525      -0.61641543       0.00000000
Si       1.28093157       2.29868190       2.70686327       0.00000000
