10
Lattice="16.28999089631971 0.0 0.0 0.0 16.28999089631971 0.0 0.0 0.0 34.3005442915855" Properties=species:S:1:pos:R:3:initial_magmoms:R:1 pbc="T T T"
Si       2.09339532      -0.54216378       1.01896684       0.00000000
Si      -1.45303542       0.96267384       1.68086481       0.00000000
Si      -0.25594848       1.94647581      -1.43811972       0.00000000
Si      -0.65479284      -1.82858508      -1.53663094       0.00000000
Si      -3.37128066       1.05267609       0.38101066       0.00000000
Si      -2.63686230       1.83498705      -1.75598305       0.00000000
Si       3.66923569      -0.58637484      -0.85507875       0.00000000
Si       0.86985342       1.51811397      -3.44377657       0.00000000
Si       1.77642450      -2.70687672       2.11504134       0.00000000
Si      -0.34653717       2.90752065       2.65455491       0.00000000
