10
Lattice="16.28999089631971 0.0 0.0 0.0 16.28999089631971 0.0 0.0 0.0 34.3005442915855" Properties=species:S:1:pos:R:3:initial_magmoms:R:1 pbc="T T T"
Si       0.50318181      -2.12555178      -0.71468654       0.00000000
Si       1.74733056       0.81277326       1.37744203       0.00000000
Si      -1.64726109      -0.24752655       1.71403346       0.00000000
Si      -0.46507950       1.08287775      -2.14395672       0.00000000
Si      -1.66524036      -2.83700124      -1.29114181       0.00000000
Si       1.96835328      -1.50583131      -2.53505174       0.00000000
Si       1.10866482       3.10451562       1.62454329       0.00000000
Si      -2.55716252       2.23632378      -1.81103545       0.00000000
Si       1.54676808       2.36662749      -2.64889531       0.00000000
Si      -0.72071847      -1.64809188       3.44154703       0.00000000
