10
Lattice="16.28999089631971 0.0 0.0 0.0 16.28999089631971 0.0 0.0 0.0 34.3005442915855" Properties=species:S:1:pos:R:3:initial_magmoms:R:1 pbc="T T T"
Si       1.35773892       1.35578412       1.35689599       0.00000000
Si      -1.35899325       1.35614250      -1.35579837       0.00000000
Si      -1.35733167      -1.35922131       1.35706749       0.00000000
Si       1.35850455      -1.35780408      -1.36241838       0.00000000
Si      -2.71349046       2.71299021       0.00027440       0.00000000
Si       0.00004887       2.71355709       2.71375768       0.00000000
Si      -2.71482624      -0.00203625       2.71372338       0.00000000
Si      -2.71365336      -2.71516833      -0.00030871       0.00000000
Si       2.71531462      -0.00200367       2.71444369       0.00000000
Si       2.71544526       2.71432861      -0.00058311       0.00000000
