10
Lattice="16.28999089631971 0.0 0.0 0.0 16.28999089631971 0.0 0.0 0.0 34.3005442915855" Properties=species:S:1:pos:R:3:initial_magmoms:R:1 pbc="T T T"
Si      -0.88202205       1.16010864      -1.87531471       0.00000000
Si      -2.00068893      -1.24045092       0.37658589       0.00000000
Si       1.83233178      -1.58123772      -0.91767727       0.00000000
Si       0.39726423       1.72662597       2.01910267       0.00000000
Si      -1.84624344      -0.67678434      -2.96586682       0.00000000
Si       0.93265137       2.17723362      -2.94247384       0.00000000
Si       0.48979143       0.15814332       3.76434964       0.00000000
Si      -1.37209041      -3.57819624       0.32386592       0.00000000
Si       2.43429615      -2.81308752       1.20885476       0.00000000
Si      -3.06462141      -0.64690848       2.36430354       0.00000000
