10
Lattice="16.28999089631971 0.0 0.0 0.0 16.28999089631971 0.0 0.0 0.0 34.3005442915855" Properties=species:S:1:pos:R:3:initial_magmoms:R:1 pbc="T T T"
Si       1.34439741       1.35700587       1.39907196       0.00000000
Si      -1.37117165      -1.35819504       1.39845455       0.00000000
Si      -1.40526011       1.30026780      -1.53277556       0.00000000
Si       1.71532071      -1.17408546      -1.50084859       0.00000000
Si       2.70904329      -2.68695405       0.05111813       0.00000000
Si      -2.72449340      -2.70089829       0.00560471       0.00000000
Si       2.69754255       2.73015513       0.00693214       0.00000000
Si      -2.72090997       2.71515204       0.01176852       0.00000000
Si       2.70239697       0.00063531       2.76104444       0.00000000
Si      -0.01374876      -2.71331127       2.76111304       0.00000000
