10
Lattice="16.28999089631971 0.0 0.0 0.0 16.28999089631971 0.0 0.0 0.0 34.3005442915855" Properties=species:S:1:pos:R:3:initial_magmoms:R:1 pbc="T T T"
Si      -1.35718893       1.35734796      -1.35730760       0.00000000
Si       1.35740829       1.35785295       1.35720470       0.00000000
Si      -1.35617895      -1.35917244       1.35713609       0.00000000
Si       1.35751417      -1.35801585      -1.35696459       0.00000000
Si      -0.00257769      -2.71070487       2.71413499       0.00000000
Si       2.71463407       0.00024435      -2.71399778       0.00000000
Si      -2.71403190       0.00117288      -2.71536981       0.00000000
Si       0.00334763       2.71248048       2.71718774       0.00000000
Si       0.00096069      -2.71619460      -2.71375768       0.00000000
Si       2.71505761      -2.71494027       0.00054881       0.00000000
