10
Lattice="16.28999089631971 0.0 0.0 0.0 16.28999089631971 0.0 0.0 0.0 34.3005442915855" Properties=species:S:1:pos:R:3:initial_magmoms:R:1 pbc="T T T"
Si      -2.09208302       1.15344603       0.33292127       0.00000000
Si       2.01184758       1.28374974      -0.50493859       0.00000000
Si       0.46507950      -1.08287775       2.14395672       0.00000000
Si      -0.78312057      -1.50817707      -1.77721509       0.00000000
Si       2.43343278      -2.58870906      -0.39109502       0.00000000
Si       0.96826131      -3.20842953       1.42927018       0.00000000
Si      -2.54854511      -2.58644475      -0.62457896       0.00000000
Si       1.42429986       3.50041149      -0.04222399       0.00000000
Si      -3.78549368      -0.56961243       0.18258190       0.00000000
Si      -2.02355080      -0.25855488      -3.32763486       0.00000000
