10
Lattice="16.28999089631971 0.0 0.0 0.0 16.28999089631971 0.0 0.0 0.0 34.3005442915855" Properties=species:S:1:pos:R:3:initial_magmoms:R:1 pbc="T T T"
Si      -1.45788725      -2.00508723       0.08554561       0.00000000
Si      -1.09597232       1.51224957       1.63603398       0.00000000
Si       0.30652567       1.25507934      -2.22919362       0.00000000
Si       2.51114585      -0.65428785      -0.32115618       0.00000000
Si       2.54677208      -1.60938684       1.95146196       0.00000000
Si       1.73922791       2.90009241      -1.37812804       0.00000000
Si      -0.92433554      -2.80399770      -2.25725148       0.00000000
Si      -2.36642942       0.05810643       3.10150295       0.00000000
Si      -1.78401305       1.97491815      -3.09384222       0.00000000
Si      -3.44837864      -1.58223141       1.62814485       0.00000000
