10
Lattice="16.28999089631971 0.0 0.0 0.0 16.28999089631971 0.0 0.0 0.0 34.3005442915855" Properties=species:S:1:pos:R:3:initial_magmoms:R:1 pbc="T T T"
Si      -1.49568264       1.23807258       1.31103614       0.00000000
Si      -1.35596331      -1.35713619      -1.36104636       0.00000000
Si       1.35467640       1.36350558      -1.36097776       0.00000000
Si       1.52664993      -1.21588560       1.36924419       0.00000000
Si      -0.18342540       2.60657334       2.72476816       0.00000000
Si      -2.72616734      -2.70257616       0.03646150       0.00000000
Si      -2.71361915       0.00506619      -2.71883416       0.00000000
Si       2.71498914       0.00133578      -2.71756504       0.00000000
Si       0.00055386      -2.71305063      -2.72051489       0.00000000
Si       2.70462870       2.73247224       0.01859091       0.00000000
