10
Lattice="16.28999089631971 0.0 0.0 0.0 16.28999089631971 0.0 0.0 0.0 34.3005442915855" Properties=species:S:1:pos:R:3:initial_magmoms:R:1 pbc="T T T"
Si       1.54724049      -0.10235007       1.76476399       0.00000000
Si       1.79110179      -0.95636635      -1.24912362       0.00000000
Si      -0.93831540       1.88113662      -1.16354371       0.00000000
Si      -1.77653201      -1.71704256       0.43345622       0.00000000
Si      -2.13194465       0.51642558      -2.61792190       0.00000000
Si       0.47884455      -2.32486712      -2.66285564       0.00000000
Si      -3.41051417      -0.74207629      -1.05402201       0.00000000
Si      -0.73521983      -3.44004794      -0.96055298       0.00000000
Si       2.55433716      -2.71719548       0.35116917       0.00000000
Si       1.56195036      -2.32962380       2.48730536       0.00000000
