10
Lattice="16.28999089631971 0.0 0.0 0.0 16.28999089631971 0.0 0.0 0.0 34.3005442915855" Properties=species:S:1:pos:R:3:initial_magmoms:R:1 pbc="T T T"
Si      -1.22801351       1.47970608      -1.31748464       0.00000000
Si       1.49568264      -1.23807258      -1.31103614       0.00000000
Si       1.31225724       1.36850076       1.41373202       0.00000000
Si      -1.21406438      -1.11518082       1.70230266       0.00000000
Si      -0.47884455       2.32486712       2.66285564       0.00000000
Si       0.57270753      -2.34279522       2.75334053       0.00000000
Si       2.07549261      -0.39232836       3.01402481       0.00000000
Si      -2.69919503      -2.50186707       0.36663872       0.00000000
Si      -2.57723180       0.12464203      -2.67266560       0.00000000
Si       0.13971933      -2.59520877      -2.67208249       0.00000000
