10
Lattice="16.28999089631971 0.0 0.0 0.0 16.28999089631971 0.0 0.0 0.0 34.40785480372833" Properties=species:S:1:pos:R:3:initial_magmoms:R:1 pbc="T T T"
Si       1.35508691       1.33069426      -1.37242687       0.00000000
Si       1.46944271      -1.29057297       1.31785598       0.00000000
Si      -1.36873384      -1.37617536      -1.36299911       0.00000000
Si      -1.00716998       1.70326285       1.34885748       0.00000000
Si       0.04437396      -2.58542892       2.62889921       0.00000000
Si       2.69963093       2.67660664      -0.00584934       0.00000000
Si      -2.70460005       2.71079935       0.00099783       0.00000000
Si      -0.00621952       2.69455822      -2.72427783       0.00000000
Si      -2.84330940       0.52694566       2.52409282       0.00000000
Si       2.70650531      -0.01879703      -2.72771862       0.00000000
