10
Lattice="16.28999089631971 0.0 0.0 0.0 16.28999089631971 0.0 0.0 0.0 34.40785480372833" Properties=species:S:1:pos:R:3:initial_magmoms:R:1 pbc="T T T"
Si      -0.09013257      -1.12363533       2.08439460       0.00000000
Si      -1.19172753      -1.08237276      -1.78129564       0.00000000
Si       2.33825031       0.02228472      -0.58754886       0.00000000
Si      -0.88490538       2.20664340       0.42404264       0.00000000
Si      -2.30299386      -1.67863563       2.35219108       0.00000000
Si       3.33901017       0.70214787       1.42840848       0.00000000
Si      -0.03885165      -3.13079139      -2.05858870       0.00000000
Si       0.98792334       3.61155816       0.47011478       0.00000000
Si      -0.96316254       0.30792987      -3.72024816       0.00000000
Si       2.65333149       1.64711448      -2.27030034       0.00000000
