10
Lattice="16.28999089631971 0.0 0.0 0.0 16.28999089631971 0.0 0.0 0.0 34.40785480372833" Properties=species:S:1:pos:R:3:initial_magmoms:R:1 pbc="T T T"
Si      -0.88780500      -1.70976093       1.28733620       0.00000000
Si       0.83557926       1.77165153       1.27666976       0.00000000
Si       1.29709125      -1.40040243      -1.36788503       0.00000000
Si      -1.45533231       1.29310020      -1.38639647       0.00000000
Si      -1.16178651       3.26150235       1.15087457       0.00000000
Si       2.62361853       2.69612532       0.03826156       0.00000000
Si      -1.64633256      -0.80964558       3.31306537       0.00000000
Si      -2.68552053      -2.67407941      -0.06269115       0.00000000
Si       2.62531269      -0.05216058      -2.74595480       0.00000000
Si      -0.08718408       2.67159258      -2.74564512       0.00000000
