10
Lattice="16.28999089631971 0.0 0.0 0.0 16.28999089631971 0.0 0.0 0.0 34.40785480372833" Properties=species:S:1:pos:R:3:initial_magmoms:R:1 pbc="T T T"
Si      -1.80832032       1.18477170       0.83459739       0.00000000
Si      -0.91629621      -2.04248092       0.67924584       0.00000000
Si       2.09176632       0.62975511       0.86109146       0.00000000
Si      -0.46643157       0.43254837      -2.30040723       0.00000000
Si      -3.12473151      -1.07807220       0.45483769       0.00000000
Si      -1.89882756       2.37557070      -2.05972416       0.00000000
Si      -1.52937036       3.36051297       0.02501452       0.00000000
Si       3.15776763      -1.42117218       1.39861126       0.00000000
Si       3.05483112       2.03027157      -0.81646444       0.00000000
Si      -3.50494011       0.59999328      -1.47633865       0.00000000
