10
Lattice="16.28999089631971 0.0 0.0 0.0 16.28999089631971 0.0 0.0 0.0 34.40785480372833" Properties=species:S:1:pos:R:3:initial_magmoms:R:1 pbc="T T T"
Si       1.24670628      -1.45260831      -1.32662999       0.00000000
Si      -1.42506875      -1.29485595       1.31104322       0.00000000
Si      -1.46944271       1.29057297      -1.31785598       0.00000000
Si       1.79771553       0.96431848       1.35002735       0.00000000
Si       2.60809416      -2.64067059       0.22571565       0.00000000
Si       2.59462233      -0.08956377      -2.68343569       0.00000000
Si      -0.11435580       2.62126723      -2.69028285       0.00000000
Si      -0.24133635      -2.27725698       3.00119240       0.00000000
Si       2.68552053       2.67407941       0.06269115       0.00000000
Si      -2.72814038      -2.70778539      -0.02418874       0.00000000
