10
Lattice="16.28999089631971 0.0 0.0 0.0 16.28999089631971 0.0 0.0 0.0 34.40785480372833" Properties=species:S:1:pos:R:3:initial_magmoms:R:1 pbc="T T T"
Si       1.35008262       1.35203742      -1.36595819       0.00000000
Si      -1.36303317      -1.36029645      -1.35818201       0.00000000
Si      -1.48455657       1.21199229       1.37996220       0.00000000
Si       1.34776944      -1.33576371       1.42572467       0.00000000
Si      -0.44026983      -2.26023750       2.66413287       0.00000000
Si      -2.43763560      -0.77038668       2.53833768       0.00000000
Si       2.67312384       2.71305063      -0.00633105       0.00000000
Si       2.70570384      -0.00518022      -2.71866935       0.00000000
Si       2.70795186      -2.71684620       0.02418874       0.00000000
Si      -0.00635310       2.70655092      -2.71849731       0.00000000
