10
Lattice="16.28999089631971 0.0 0.0 0.0 16.28999089631971 0.0 0.0 0.0 34.40785480372833" Properties=species:S:1:pos:R:3:initial_magmoms:R:1 pbc="T T T"
Si       0.85313988       1.53285642      -1.62745803       0.00000000
Si       0.71403957      -2.22553980      -0.67050624       0.00000000
Si      -2.28946176       0.81352260      -0.54010040       0.00000000
Si       0.40200462      -0.41376600       2.50747382       0.00000000
Si      -1.42443018       1.18788309       2.94422023       0.00000000
Si      -1.30927617      -2.59195077      -1.99434919       0.00000000
Si      -2.27585961       2.42144334       1.17093436       0.00000000
Si      -0.88539408       1.36907676      -3.21978563       0.00000000
Si       1.51791849       3.56847111      -0.75642270       0.00000000
Si       1.19325879      -3.55830615       1.38061595       0.00000000
