10
Lattice="16.28999089631971 0.0 0.0 0.0 16.28999089631971 0.0 0.0 0.0 34.40785480372833" Properties=species:S:1:pos:R:3:initial_magmoms:R:1 pbc="T T T"
Si      -1.35834165      -1.35690813      -1.35597991       0.00000000
Si       1.35725022      -1.35744570       1.35766589       0.00000000
Si       1.35775521       1.35848826      -1.35656484       0.00000000
Si      -1.35755973       1.35767376       1.35800997       0.00000000
Si       2.71391400      -0.00390960      -2.71330172       0.00000000
Si      -2.71474968       2.71458189       0.00055053       0.00000000
Si       2.71469592       2.71482624       0.00075697       0.00000000
Si       2.71495656      -2.71487511       0.00024086       0.00000000
Si      -2.71343507      -0.00047241      -2.71684573       0.00000000
Si      -0.00149868       2.71590138       2.71440277       0.00000000
