10
Lattice="16.28999089631971 0.0 0.0 0.0 16.28999089631971 0.0 0.0 0.0 34.40785480372833" Properties=species:S:1:pos:R:3:initial_magmoms:R:1 pbc="T T T"
Si      -0.34430544      -1.46592081      -1.81401753       0.00000000
Si      -1.98079884       1.14116337       0.84123811       0.00000000
Si       1.75689279       1.23926175      -1.22770735       0.00000000
Si       0.78037245      -1.40238981       1.93282792       0.00000000
Si      -0.95961132       0.63496791      -3.16473303       0.00000000
Si       3.20730552      -0.70610634      -1.29428659       0.00000000
Si      -2.24083611       2.15391267      -1.77513663       0.00000000
Si      -2.97085617      -1.59677838      -1.43429223       0.00000000
Si      -1.18237707      -1.44896292       3.20333866       0.00000000
Si       2.39304987       2.82975219       0.35274952       0.00000000
