10
Lattice="16.28999089631971 0.0 0.0 0.0 16.28999089631971 0.0 0.0 0.0 34.40785480372833" Properties=species:S:1:pos:R:3:initial_magmoms:R:1 pbc="T T T"
Si       0.74171628      -2.21125347      -0.06798996       0.00000000
Si      -2.09005587      -0.14753853       1.04730687       0.00000000
Si       1.34389242       0.97964802       1.74121047       0.00000000
Si      -0.05670549       0.37887282      -2.43009051       0.00000000
Si      -1.22310207      -3.06774909      -1.04672194       0.00000000
Si       0.68232294       2.61946458      -2.27136699       0.00000000
Si      -3.07709955      -1.85450247      -0.25396452       0.00000000
Si       3.40470774       1.22251563       0.60630115       0.00000000
Si       2.70446580      -2.16468036      -1.33850071       0.00000000
Si       1.23934320      -2.83815783       2.13724510       0.00000000
