10
Lattice="16.28999089631971 0.0 0.0 0.0 16.28999089631971 0.0 0.0 0.0 34.40785480372833" Properties=species:S:1:pos:R:3:initial_magmoms:R:1 pbc="T T T"
Si       1.96149519       0.75120734      -1.32301716       0.00000000
Si      -1.74980664       1.74322126      -0.27577911       0.00000000
Si      -0.93942801      -1.86176781      -1.40009080       0.00000000
Si       0.57542796      -0.65449962       2.43342808       0.00000000
Si       0.43508961       2.05257977      -2.93100034       0.00000000
Si      -2.30081589      -0.67370553      -2.95243645       0.00000000
Si      -0.86200164       3.45298220      -1.56311531       0.00000000
Si      -2.41825050      -3.13339779       0.03117353       0.00000000
Si       3.75078879       1.09683243       0.68499196       0.00000000
Si      -3.54752217       0.77890278      -1.62580646       0.00000000
