10
Lattice="16.28999089631971 0.0 0.0 0.0 16.28999089631971 0.0 0.0 0.0 34.40785480372833" Properties=species:S:1:pos:R:3:initial_magmoms:R:1 pbc="T T T"
Si       1.72190187       1.44203708       0.79289505       0.00000000
Si      -1.11848769       1.02741030      -1.86046816       0.00000000
Si       1.23259914      -1.88199999      -0.90217446       0.00000000
Si      -1.95159087      -0.45743949       1.42479566       0.00000000
Si      -2.99131641      -0.37750446      -1.90654030       0.00000000
Si       3.19173228       1.20690217      -1.14282313       0.00000000
Si       0.37383921       3.33602000       1.33330512       0.00000000
Si       3.43974753      -1.10022660      -1.32848802       0.00000000
Si      -1.96089246      -2.75009409       1.89934905       0.00000000
Si       0.23183928      -2.56186314      -2.91813180       0.00000000
