10
Lattice="16.28999089631971 0.0 0.0 0.0 16.28999089631971 0.0 0.0 0.0 34.40785480372833" Properties=species:S:1:pos:R:3:initial_magmoms:R:1 pbc="T T T"
Si      -0.96710472      -1.70435754       1.28386930       0.00000000
Si      -1.64147814       1.70297289       0.22652153       0.00000000
Si       0.42156891      -1.13366997      -2.07906138       0.00000000
Si       1.81397295       1.03107555       1.20482753       0.00000000
Si       2.73404844      -1.10415249      -1.95801448       0.00000000
Si      -2.27094003      -0.34557606       2.71891850       0.00000000
Si       0.47467431       2.35671718       2.71860883       0.00000000
Si      -1.47528756       3.06496906      -1.63107086       0.00000000
Si      -2.98243836      -2.47676418       0.06433967       0.00000000
Si      -2.44089360       1.30626252      -2.80296864       0.00000000
