10
Lattice="16.28999089631971 0.0 0.0 0.0 16.28999089631971 0.0 0.0 0.0 34.40785480372833" Properties=species:S:1:pos:R:3:initial_magmoms:R:1 pbc="T T T"
Si      -1.32822144      -1.34824185       1.37806976       0.00000000
Si       1.35739683      -1.35103070      -1.36024648       0.00000000
Si      -1.35588186       1.36285398      -1.35976477       0.00000000
Si       1.35848826       1.36720341       1.38268042       0.00000000
Si      -2.62531269       0.05216058       2.74595480       0.00000000
Si       2.71520091      -2.70780141      -0.00003441       0.00000000
Si       0.00039096      -2.70978219      -2.71701777       0.00000000
Si      -2.71621089      -2.71148260      -0.00017204       0.00000000
Si       2.71565703       0.00451233      -2.71736185       0.00000000
Si      -2.71495656       0.00420282      -2.71846290       0.00000000
