10
Lattice="16.28999089631971 0.0 0.0 0.0 16.28999089631971 0.0 0.0 0.0 34.40785480372833" Properties=species:S:1:pos:R:3:initial_magmoms:R:1 pbc="T T T"
Si      -1.04153261       0.73871892       1.96620355       0.00000000
Si      -1.47566111      -1.28782224      -1.30791211       0.00000000
Si       0.21314830       1.86991281      -1.43714808       0.00000000
Si       2.10654966      -1.07636175       0.19350988       0.00000000
Si       1.99533783       0.85845042      -2.69172799       0.00000000
Si       1.64145387      -3.39637445       0.01665341       0.00000000
Si      -2.26963571       0.09211995      -3.01991029       0.00000000
Si       0.75133732       1.35412254       3.51190848       0.00000000
Si      -2.50724165       2.56518630       1.41640013       0.00000000
Si       3.54837756      -0.43803810      -1.55599288       0.00000000
