10
Lattice="16.28999089631971 0.0 0.0 0.0 16.28999089631971 0.0 0.0 0.0 34.40785480372833" Properties=species:S:1:pos:R:3:initial_magmoms:R:1 pbc="T T T"
Si       1.34491869       1.81625355       0.73044476       0.00000000
Si      -1.64343294       0.21001068       1.73680626       0.00000000
Si      -0.64474191       0.24962796      -2.30295342       0.00000000
Si       1.54882062      -1.87927467       0.06984798       0.00000000
Si       0.49607937      -1.61684929      -3.06612006       0.00000000
Si       0.77483385       1.06883577       3.34000674       0.00000000
Si       3.29709600      -0.87891066       1.51976139       0.00000000
Si       0.52905033       2.10274578      -3.04753981       0.00000000
Si       0.17229933       3.76013925       0.00295908       0.00000000
Si      -3.53074347       1.14593634       0.66489776       0.00000000
