10
Lattice="16.28999089631971 0.0 0.0 0.0 16.28999089631971 0.0 0.0 0.0 34.40785480372833" Properties=species:S:1:pos:R:3:initial_magmoms:R:1 pbc="T T T"
Si      -1.35562122       1.35721764       1.35271116       0.00000000
Si      -1.35619137      -1.35788553      -1.35752826       0.00000000
Si       1.35839052       1.35633798      -1.35735622       0.00000000
Si       1.35852084      -1.35671265       1.35997122       0.00000000
Si      -2.71205694       2.71173114       0.00017204       0.00000000
Si      -2.70570384       0.00518022       2.71866935       0.00000000
Si      -2.71212210      -2.71601541       0.00041289       0.00000000
Si       0.00146610       2.71363707      -2.71457481       0.00000000
Si      -2.71347417      -0.00061902      -2.71495330       0.00000000
Si       2.71609686       2.71331127       0.00037849       0.00000000
