10
Lattice="16.28999089631971 0.0 0.0 0.0 16.28999089631971 0.0 0.0 0.0 34.40785480372833" Properties=species:S:1:pos:R:3:initial_magmoms:R:1 pbc="T T T"
Si       1.24234056      -0.91812069       1.76147670       0.00000000
Si      -1.45041273       1.94536809       0.06657924       0.00000000
Si      -1.33918461      -1.22808681      -1.63901908       0.00000000
Si       2.31436917       0.76595580      -0.62519107       0.00000000
Si       1.06831449       1.95305697      -2.22522603       0.00000000
Si      -0.00664632       0.07089408      -3.26713086       0.00000000
Si      -3.20730552       0.70610634       1.29428659       0.00000000
Si      -3.55161096      -0.75981447      -0.51973094       0.00000000
Si       1.22181516       0.68782896       3.54483681       0.00000000
Si      -0.81425565       3.53585853       1.64703611       0.00000000
