10
Lattice="16.28999089631971 0.0 0.0 0.0 16.28999089631971 0.0 0.0 0.0 34.40785480372833" Properties=species:S:1:pos:R:3:initial_magmoms:R:1 pbc="T T T"
Si      -1.34491869      -1.81625355      -0.73044476       0.00000000
Si      -1.17261936       1.94388570      -0.72748568       0.00000000
Si       2.15392896       0.31369653      -0.98599204       0.00000000
Si      -0.57008484      -0.74741778       2.60956198       0.00000000
Si       1.95217731      -2.69516421       0.78931663       0.00000000
Si       1.71519039      -1.20510162       2.84415487       0.00000000
Si      -2.98835163      -1.60624287       1.00636150       0.00000000
Si       1.43944956       0.83251674      -3.21589754       0.00000000
Si       0.20390193      -3.69552822      -0.66059677       0.00000000
Si       3.12735420       2.12832108       0.20328172       0.00000000
