10
Lattice="16.28999089631971 0.0 0.0 0.0 16.28999089631971 0.0 0.0 0.0 34.40785480372833" Properties=species:S:1:pos:R:3:initial_magmoms:R:1 pbc="T T T"
Si       0.48511620      -1.62092016      -1.76006598       0.00000000
Si      -0.83403171       1.82131974      -1.42944072       0.00000000
Si       1.44316368       1.19987253       1.66957469       0.00000000
Si      -1.28505294      -1.46421036       1.63524595       0.00000000
Si       1.41483537       2.89815390      -1.68220096       0.00000000
Si       2.96864073       2.17311858       0.11753730       0.00000000
Si       2.77039143      -2.07860400      -1.52547310       0.00000000
Si      -2.47910994       2.93946534       0.04617537       0.00000000
Si      -0.83930967      -3.65700726      -1.05518627       0.00000000
Si      -2.74833477      -2.77003305       0.24931946       0.00000000
