10
Lattice="16.28999089631971 0.0 0.0 0.0 16.28999089631971 0.0 0.0 0.0 34.40785480372833" Properties=species:S:1:pos:R:3:initial_magmoms:R:1 pbc="T T T"
Si       1.35918873       1.35316143       1.37511757       0.00000000
Si      -1.35444834      -1.36704051       1.38072605       0.00000000
Si       1.41595938      -1.19075013      -1.50549244       0.00000000
Si      -1.41351588       1.35433431      -1.41746678       0.00000000
Si      -2.68589520      -2.70640431       0.01290295       0.00000000
Si       2.71912680      -2.71016730      -0.01507753       0.00000000
Si      -2.71735119       2.71311579       0.01758242       0.00000000
Si       2.72205900       2.71544526      -0.00996796       0.00000000
Si       0.00402363       2.71072116       2.73653392       0.00000000
Si      -2.71060713      -0.00464265       2.73746293       0.00000000
