10
Lattice="16.28999089631971 0.0 0.0 0.0 16.28999089631971 0.0 0.0 0.0 34.40785480372833" Properties=species:S:1:pos:R:3:initial_magmoms:R:1 pbc="T T T"
Si       1.32304122       1.36101321       1.35962714       0.00000000
Si      -1.35643572       1.35451350      -1.35253912       0.00000000
Si       1.35562122      -1.35721764      -1.35271116       0.00000000
Si      -1.35008262      -1.35203742       1.36595819       0.00000000
Si      -0.18645534       2.59939530       2.75204499       0.00000000
Si       2.59677261       0.00438201       2.77471978       0.00000000
Si       2.71401174      -0.00087966      -2.71006738       0.00000000
Si      -0.00099369       2.71440270      -2.71017061       0.00000000
Si      -0.00057015      -2.71510317      -2.71023942       0.00000000
Si      -2.71311579      -2.71233387       0.00777618       0.00000000
