10
Lattice="16.28999089631971 0.0 0.0 0.0 16.28999089631971 0.0 0.0 0.0 34.40785480372833" Properties=species:S:1:pos:R:3:initial_magmoms:R:1 pbc="T T T"
Si       1.35591444      -1.35837423      -1.36231096       0.00000000
Si      -1.35827649       1.35749457      -1.36258622       0.00000000
Si       1.34776944       1.38769623       1.35962714       0.00000000
Si      -1.39276242      -1.35345465       1.34964886       0.00000000
Si       2.74786236       0.04377123       2.62855513       0.00000000
Si       2.71042794       2.71490769      -0.00364723       0.00000000
Si      -2.71580364      -2.71446786      -0.00997828       0.00000000
Si       2.71515204      -2.71655298      -0.00254618       0.00000000
Si       2.71363707      -0.00014661      -2.71980481       0.00000000
Si      -2.71733490       2.71691136      -0.00216770       0.00000000
