10
Lattice="16.28999089631971 0.0 0.0 0.0 16.28999089631971 0.0 0.0 0.0 34.40785480372833" Properties=species:S:1:pos:R:3:initial_magmoms:R:1 pbc="T T T"
Si      -1.87955649      -0.76085703      -1.21425387       0.00000000
Si       1.97863227      -1.47370743      -0.14967425       0.00000000
Si       0.94496661       2.02473297      -1.09155540       0.00000000
Si      -0.54009495      -1.48139631       2.14213101       0.00000000
Si      -0.37005993      -1.99923912      -2.60667172       0.00000000
Si       2.37047193       0.74191176      -2.59669344       0.00000000
Si       0.90367146      -3.35587032      -1.19157909       0.00000000
Si       0.09606213       0.10909413       3.72258789       0.00000000
Si      -3.25659906      -2.08569015       0.20510534       0.00000000
Si       3.77056485      -0.60201324      -1.32776545       0.00000000
