10
Lattice="16.28999089631971 0.0 0.0 0.0 16.28999089631971 0.0 0.0 0.0 34.40785480372833" Properties=species:S:1:pos:R:3:initial_magmoms:R:1 pbc="T T T"
Si      -1.33123509      -1.38434049      -1.33953294       0.00000000
Si       1.35822762      -1.35392706       1.36561411       0.00000000
Si      -1.35700587       1.36163223       1.36568293       0.00000000
Si       1.38380292       1.37526696      -1.35946198       0.00000000
Si      -2.77818131      -0.12572622      -2.60452123       0.00000000
Si       2.71239903      -2.70673011       0.00041289       0.00000000
Si      -2.70870772      -2.71389771       0.00485151       0.00000000
Si       2.71524978       2.71463076       0.00836111       0.00000000
Si      -2.71209929       2.71806795       0.00481710       0.00000000
Si       0.00057015      -2.71132389       2.72131876       0.00000000
