10
Lattice="16.28999089631971 0.0 0.0 0.0 16.28999089631971 0.0 0.0 0.0 34.40785480372833" Properties=species:S:1:pos:R:3:initial_magmoms:R:1 pbc="T T T"
Si       0.02052540      -1.60594965      -1.78336011       0.00000000
Si      -2.14783650      -0.14248863       1.06162055       0.00000000
Si       0.00229689       2.19035340      -0.99490368       0.00000000
Si       1.75738149      -0.65761101       1.55671544       0.00000000
Si       1.84182885       1.90120590      -2.41364355       0.00000000
Si      -1.43239599      -0.96453090       3.15416981       0.00000000
Si       0.66803661      -0.06445953       3.57411792       0.00000000
Si      -1.22181516      -0.68782896      -3.54483681       0.00000000
Si       3.71900700       0.53235720       0.85104436       0.00000000
Si      -0.62222913      -3.69923094      -0.88710381       0.00000000
