10
Lattice="16.28999089631971 0.0 0.0 0.0 16.28999089631971 0.0 0.0 0.0 34.40785480372833" Properties=species:S:1:pos:R:3:initial_magmoms:R:1 pbc="T T T"
Si       1.37747263       1.32955722      -1.34438445       0.00000000
Si       1.34925835      -1.35544203       1.35993681       0.00000000
Si      -1.37218882      -1.35733167      -1.33774373       0.00000000
Si      -1.36316985       1.35816246       1.36096905       0.00000000
Si      -0.06947359       2.58817149      -2.60937274       0.00000000
Si       2.70702985      -2.70723836      -0.00443862       0.00000000
Si       2.70870772       2.71389771      -0.00485151       0.00000000
Si       2.70927787       0.00257382       2.71646725       0.00000000
Si      -0.00544901      -2.71290728       2.71725863       0.00000000
Si      -2.71888312      -2.71223939       0.00443862       0.00000000
