10
Lattice="16.28999089631971 0.0 0.0 0.0 16.28999089631971 0.0 0.0 0.0 34.40785480372833" Properties=species:S:1:pos:R:3:initial_magmoms:R:1 pbc="T T T"
Si       1.31432607       1.21024926       1.62356792       0.00000000
Si       1.64507823      -1.11814560      -1.47561609       0.00000000
Si      -0.29390418       1.91184327      -1.69469102       0.00000000
Si      -1.39331628      -1.50760692       1.60530766       0.00000000
Si       2.67566508       2.74740624       0.22447697       0.00000000
Si       2.47910994      -2.93946534      -0.04617537       0.00000000
Si      -0.10163331       2.40099939       3.12906036       0.00000000
Si       0.92944224      -0.57855564      -3.82711901       0.00000000
Si      -3.37921389      -2.24630955       0.32456948       0.00000000
Si       2.61749349      -0.30916791       3.11398283       0.00000000
