10
Lattice="16.28999089631971 0.0 0.0 0.0 16.28999089631971 0.0 0.0 0.0 34.40785480372833" Properties=species:S:1:pos:R:3:initial_magmoms:R:1 pbc="T T T"
Si      -1.35692442      -1.35754344       1.35735622       0.00000000
Si      -1.35733167       1.35736425      -1.35749385       0.00000000
Si       1.35762489      -1.35777150      -1.35739063       0.00000000
Si       1.35883035       1.35793440       1.35704655       0.00000000
Si       2.71293660       0.00011403      -2.71491889       0.00000000
Si       2.71178001      -0.00013032       2.71629521       0.00000000
Si      -2.71467963       2.71461580       0.00041289       0.00000000
Si       2.71498914      -2.71518462       0.00013763       0.00000000
Si       2.71495656       2.71532749      -0.00010322       0.00000000
Si      -2.71487511       0.00138465      -2.71543501       0.00000000
