10
Lattice="16.28999089631971 0.0 0.0 0.0 16.28999089631971 0.0 0.0 0.0 34.40785480372833" Properties=species:S:1:pos:R:3:initial_magmoms:R:1 pbc="T T T"
Si       1.44694622      -1.25861427       1.26498828       0.00000000
Si      -1.31387388       1.49915241       1.22676458       0.00000000
Si      -1.04043904      -1.68655257      -1.31376661       0.00000000
Si       1.74386405       1.16173764      -1.13558818       0.00000000
Si       0.06947359      -2.58817149       2.60937274       0.00000000
Si      -2.64963759       0.13093902       2.60875340       0.00000000
Si       2.77818131       0.12572622       2.60452123       0.00000000
Si       0.73670222      -3.45462030      -1.47502913       0.00000000
Si      -2.64162291       2.76407091      -0.48011715       0.00000000
Si       0.06608201       2.84379417       2.60933833       0.00000000
