10
Lattice="16.28999089631971 0.0 0.0 0.0 16.28999089631971 0.0 0.0 0.0 34.40785480372833" Properties=species:S:1:pos:R:3:initial_magmoms:R:1 pbc="T T T"
Si       1.35842310      -1.35586883      -1.35556701       0.00000000
Si      -1.35790182      -1.35631355       1.35773471       0.00000000
Si       1.35664749       1.35817875       1.35756267       0.00000000
Si      -1.35816246       1.36039419      -1.35911102       0.00000000
Si       2.70511740      -0.00096111      -2.69774936       0.00000000
Si       2.71270862      -2.71357458      -0.00048171       0.00000000
Si      -2.71417464      -2.71228045       0.00058493       0.00000000
Si      -0.00042354      -2.71338736       2.71464363       0.00000000
Si       2.71413637       2.71453302       0.00096342       0.00000000
Si       2.71435029       0.00102627       2.71440277       0.00000000
