10
Lattice="16.28999089631971 0.0 0.0 0.0 16.28999089631971 0.0 0.0 0.0 34.40785480372833" Properties=species:S:1:pos:R:3:initial_magmoms:R:1 pbc="T T T"
Si       1.08678735       0.24759171       2.12743885       0.00000000
Si      -1.17507915      -1.89554417      -1.04445102       0.00000000
Si       1.83613942       1.17631719      -1.17523535       0.00000000
Si      -1.93678326       1.64330262       0.20359139       0.00000000
Si       0.13870935       2.18385369      -2.52309499       0.00000000
Si      -0.28417905       2.03382279       2.98130465       0.00000000
Si      -2.58722667      -0.55374271      -2.51225651       0.00000000
Si       2.84330940      -0.52694566      -2.52409282       0.00000000
Si      -1.21184568       3.55266981      -1.06616238       0.00000000
Si       3.30573689       1.23771420       1.87701834       0.00000000
