10
Lattice="16.28999089631971 0.0 0.0 0.0 16.28999089631971 0.0 0.0 0.0 34.40785480372833" Properties=species:S:1:pos:R:3:initial_magmoms:R:1 pbc="T T T"
Si      -1.08678735      -0.24759171      -2.12743885       0.00000000
Si      -1.37096640       1.78623108       0.85386580       0.00000000
Si      -0.04531878      -1.46183365       1.94019120       0.00000000
Si       2.21894954       0.99012249      -0.25042051       0.00000000
Si       0.54720441       2.35227600       2.30993822       0.00000000
Si       0.74935207       0.92872548      -3.30267420       0.00000000
Si       2.81076524       1.56651156       2.03498489       0.00000000
Si      -3.02357061       1.39571091      -1.92384746       0.00000000
Si       2.11260842      -1.89121850       2.78600556       0.00000000
Si      -3.54773394       1.01895579       1.56153255       0.00000000
