10
Lattice="16.28999089631971 0.0 0.0 0.0 16.28999089631971 0.0 0.0 0.0 34.40785480372833" Properties=species:S:1:pos:R:3:initial_magmoms:R:1 pbc="T T T"
Si       2.17676754       0.76727529      -0.70766675       0.00000000
Si       0.02013444      -1.81858139       1.58823306       0.00000000
Si      -1.00183500       1.89602568       1.11364525       0.00000000
Si      -1.27812969      -0.57743163      -2.07187013       0.00000000
Si       0.52416333       0.37675512      -3.48538001       0.00000000
Si      -1.03063572      -0.74332899       3.37217810       0.00000000
Si       2.23879986      -1.78731599       2.26572410       0.00000000
Si      -0.41049171       1.54228833       3.38205316       0.00000000
Si       2.01126114       3.17620791      -1.05528950       0.00000000
Si       3.54773394      -1.01895579      -1.56153255       0.00000000
