10
Lattice="16.28999089631971 0.0 0.0 0.0 16.28999089631971 0.0 0.0 0.0 34.40785480372833" Properties=species:S:1:pos:R:3:initial_magmoms:R:1 pbc="T T T"
Si       1.37096640      -1.78623108      -0.85386580       0.00000000
Si      -2.17676754      -0.76727529       0.70766675       0.00000000
Si      -0.16550640       2.40893262      -0.34762275       0.00000000
Si       1.91817081       0.56604492       1.45607241       0.00000000
Si      -1.65260421      -0.39052017      -2.77771326       0.00000000
Si       1.99120393       2.73701322       0.48112530       0.00000000
Si       0.28417905      -2.03382279      -2.98130465       0.00000000
Si       1.32564762      -3.24806473       1.08632540       0.00000000
Si      -3.17860254       1.12875039       1.82131200       0.00000000
Si       3.58991594      -0.79610859      -1.10428631       0.00000000
