10
Lattice="16.28999089631971 0.0 0.0 0.0 16.28999089631971 0.0 0.0 0.0 34.40785480372833" Properties=species:S:1:pos:R:3:initial_magmoms:R:1 pbc="T T T"
Si      -0.14480181      -0.80065350       2.22488195       0.00000000
Si      -0.90696204      -1.69073910      -1.47496234       0.00000000
Si       1.73314197       1.17968922      -1.25757339       0.00000000
Si      -1.44311481       1.69652205       1.11089262       0.00000000
Si       2.01190852      -0.47257290       3.05363000       0.00000000
Si      -2.30045751      -0.36414666      -2.91930166       0.00000000
Si       0.43261353       2.34046575      -2.93382179       0.00000000
Si      -1.63189962      -3.60010629      -0.20520856       0.00000000
Si      -2.68916949       2.88362322      -0.48914234       0.00000000
Si       2.62274931       3.03316542       0.09482810       0.00000000
