10
Lattice="16.28999089631971 0.0 0.0 0.0 16.28999089631971 0.0 0.0 0.0 34.40785480372833" Properties=species:S:1:pos:R:3:initial_magmoms:R:1 pbc="T T T"
Si      -2.01178242       0.84444102       0.86676875       0.00000000
Si      -0.41787108      -2.19779793       0.75876244       0.00000000
Si       0.38637324      -0.38351547      -2.33419577       0.00000000
Si       1.65563645       1.36865322       1.18091264       0.00000000
Si      -1.52212131      -0.13211190       3.06398677       0.00000000
Si       1.68794604      -3.07595925       1.26149589       0.00000000
Si       0.45940636       1.78745283      -3.30914288       0.00000000
Si      -1.46976525      -3.50415167      -0.81687734       0.00000000
Si       2.64993407      -1.16927991      -2.60914909       0.00000000
Si       3.48767990       0.00100998       1.76818624       0.00000000
