10
Lattice="16.28999089631971 0.0 0.0 0.0 16.28999089631971 0.0 0.0 0.0 34.40785480372833" Properties=species:S:1:pos:R:3:initial_magmoms:R:1 pbc="T T T"
Si       1.70918820       1.09304271      -1.33706387       0.00000000
Si       1.32774903      -1.26491850       1.70688173       0.00000000
Si      -1.25110458      -1.72401957      -1.34542499       0.00000000
Si      -1.35298224       1.43218422       1.68745160       0.00000000
Si       2.66964171       2.68187157       0.25163855       0.00000000
Si       2.64162291      -2.76407091       0.48011715       0.00000000
Si      -2.77658163      -2.69726562       0.20661240       0.00000000
Si      -2.55741597       2.95720515       0.26302067       0.00000000
Si      -0.00801468      -2.63313189       3.08887055       0.00000000
Si       2.70770492       0.07972326       3.08945548       0.00000000
