10
Lattice="16.28999089631971 0.0 0.0 0.0 16.28999089631971 0.0 0.0 0.0 34.40785480372833" Properties=species:S:1:pos:R:3:initial_magmoms:R:1 pbc="T T T"
Si       1.35622488      -1.35716877       1.35804438       0.00000000
Si      -1.35837423      -1.35829278      -1.35656484       0.00000000
Si      -1.35757602       1.35760860       1.35831964       0.00000000
Si       1.35953082       1.35850455      -1.35649603       0.00000000
Si       2.71420789      -0.00063531       2.71546942       0.00000000
Si       0.00068418      -2.71702539       2.71275120       0.00000000
Si      -2.71494027       2.71502172       0.00079138       0.00000000
Si      -2.71549413      -2.71464705       0.00041289       0.00000000
Si       0.00100998      -2.71300176      -2.71718981       0.00000000
Si       2.71517715      -2.71511946       0.00027526       0.00000000
