10
Lattice="16.28999089631971 0.0 0.0 0.0 16.28999089631971 0.0 0.0 0.0 34.40785480372833" Properties=species:S:1:pos:R:3:initial_magmoms:R:1 pbc="T T T"
Si      -1.32985044       1.41485166       1.26658825       0.00000000
Si      -1.36256076      -1.34547255      -1.36451306       0.00000000
Si       1.34882829       1.37135736      -1.36688720       0.00000000
Si       1.30052844      -1.16077653       1.67624840       0.00000000
Si       0.41559048       2.42297460       2.54318919       0.00000000
Si      -0.43261353      -2.34046575       2.93382179       0.00000000
Si       2.19013578       0.69269967       3.02864989       0.00000000
Si       2.69414187      -2.68812693       0.03093268       0.00000000
Si      -0.00581553      -2.70370017      -2.72734014       0.00000000
Si       2.70770818       0.01268991      -2.72462191       0.00000000
