10
Lattice="16.28999089631971 0.0 0.0 0.0 16.28999089631971 0.0 0.0 0.0 34.40785480372833" Properties=species:S:1:pos:R:3:initial_magmoms:R:1 pbc="T T T"
Si      -1.83953196       0.28914750       1.41873987       0.00000000
Si       0.64596366       1.89781758      -1.25581859       0.00000000
Si       1.51207038       0.50194377       1.89033419       0.00000000
Si      -0.74927484      -1.82307906      -1.75638434       0.00000000
Si      -1.84182885      -1.90120590       2.41364355       0.00000000
Si       1.54204398       1.24383924      -3.25790955       0.00000000
Si      -0.90671769       3.65228316      -0.83910482       0.00000000
Si       0.43326513       1.87499529       3.43459399       0.00000000
Si      -1.99532952      -0.63597789      -3.35641930       0.00000000
Si       3.62551447       1.30077279       1.07940942       0.00000000
