10
Lattice="16.28999089631971 0.0 0.0 0.0 16.28999089631971 0.0 0.0 0.0 34.40785480372833" Properties=species:S:1:pos:R:3:initial_magmoms:R:1 pbc="T T T"
Si      -0.39907242       0.56865132      -2.18727414       0.00000000
Si       0.23944671       1.68510276       1.61551850       0.00000000
Si      -2.07677952      -0.92823678       0.62742758       0.00000000
Si       1.83265499      -1.41413490      -0.47142228       0.00000000
Si       2.06612653      -2.54905920       1.53665565       0.00000000
Si       1.04484060      -2.67519267      -2.35718023       0.00000000
Si       0.67588839       2.45656458      -2.78875819       0.00000000
Si      -3.72314466       0.02010186      -0.82578898       0.00000000
Si       1.29655368       0.70024194       3.51851479       0.00000000
Si      -1.95941007       2.60512938       2.02696786       0.00000000
