10
Lattice="16.28999089631971 0.0 0.0 0.0 16.28999089631971 0.0 0.0 0.0 34.40785480372833" Properties=species:S:1:pos:R:3:initial_magmoms:R:1 pbc="T T T"
Si       0.07064973      -2.34377262      -0.26153425       0.00000000
Si       2.07677952       0.92823678      -0.62742758       0.00000000
Si      -0.42632559       0.43047954       2.29132356       0.00000000
Si      -1.64636514       0.94833864      -1.45321656       0.00000000
Si       1.67770710       1.49688810      -2.81470173       0.00000000
Si       2.31622623       2.61333954       0.98809092       0.00000000
Si       1.70913051       0.03416013       3.30198604       0.00000000
Si      -2.05592832      -1.12112667       2.92656173       0.00000000
Si       0.55211697      -3.24096066       1.88765038       0.00000000
Si       0.11736945       3.53336616       1.39954028       0.00000000
