10
Lattice="16.28999089631971 0.0 0.0 0.0 16.28999089631971 0.0 0.0 0.0 34.40785480372833" Properties=species:S:1:pos:R:3:initial_magmoms:R:1 pbc="T T T"
Si       1.47007673      -1.26876294       1.29408014       0.00000000
Si       1.36004057       1.35342007      -1.36258622       0.00000000
Si      -1.35408996      -1.36358703      -1.36613023       0.00000000
Si      -1.28961414       1.36099692       1.48005470       0.00000000
Si      -2.70176166       2.70279837       0.01224920       0.00000000
Si      -2.71674846      -2.69079849      -0.00285585       0.00000000
Si       2.77314837       0.14416650       2.62931210       0.00000000
Si      -2.70703962      -0.00552231      -2.72537889       0.00000000
Si       0.00850338       2.71188819      -2.72469073       0.00000000
Si       0.00698841      -2.72070693      -2.72582619       0.00000000
