10
Lattice="16.28999089631971 0.0 0.0 0.0 16.28999089631971 0.0 0.0 0.0 34.40785480372833" Properties=species:S:1:pos:R:3:initial_magmoms:R:1 pbc="T T T"
Si      -0.96985773      -1.19946528      -1.78270636       0.00000000
Si       1.11337263      -1.65622059       1.36826352       0.00000000
Si       1.91471031       1.27847408      -0.78935104       0.00000000
Si      -1.74159648       1.05385469       1.49787798       0.00000000
Si       2.29746015      -2.25818496      -0.71317201       0.00000000
Si      -2.23862067      -2.53837296      -0.23521223       0.00000000
Si       0.30116952      -3.17221686      -1.75339085       0.00000000
Si       2.98449090       1.63310412       1.53758467       0.00000000
Si       2.41600248      -0.29704815       2.90849213       0.00000000
Si       3.30779853      -0.35313462      -1.92426036       0.00000000
