10
Lattice="16.28999089631971 0.0 0.0 0.0 16.28999089631971 0.0 0.0 0.0 34.40785480372833" Properties=species:S:1:pos:R:3:initial_magmoms:R:1 pbc="T T T"
Si      -1.10886519       2.00972988       0.36021603       0.00000000
Si       2.17183330       0.85226022      -0.21790507       0.00000000
Si      -0.27110795      -1.25781606       1.99194064       0.00000000
Si      -0.10535069      -1.15852851      -2.12189918       0.00000000
Si       1.72669276      -2.52617175      -1.53462559       0.00000000
Si      -1.16857618      -3.14545239       0.89016611       0.00000000
Si       3.25936999      -1.19848788      -0.32508559       0.00000000
Si       1.99756288       1.98426861      -2.31657893       0.00000000
Si      -1.51441886       0.32149944       3.36254390       0.00000000
Si      -2.82140098       1.58640165       1.86201651       0.00000000
