10
Lattice="16.28999089631971 0.0 0.0 0.0 16.28999089631971 0.0 0.0 0.0 34.40785480372833" Properties=species:S:1:pos:R:3:initial_magmoms:R:1 pbc="T T T"
Si      -1.11307941      -1.63074303       1.17021180       0.00000000
Si       0.85887396      -0.58551147      -2.06639928       0.00000000
Si      -1.83204345       1.36764324      -0.58727359       0.00000000
Si       1.53267723       1.32768387       1.20954000       0.00000000
Si      -1.72669276       2.52617175       1.53462559       0.00000000
Si       1.13782392       1.59022980      -2.87598215       0.00000000
Si      -0.71617356       2.80347642      -2.08322473       0.00000000
Si      -1.79973386      -3.07696923      -0.50669035       0.00000000
Si       0.44514054       3.37843197       1.31672052       0.00000000
Si       0.43996032      -2.92723155       2.30594690       0.00000000
