10
Lattice="16.28999089631971 0.0 0.0 0.0 16.28999089631971 0.0 0.0 0.0 34.40785480372833" Properties=species:S:1:pos:R:3:initial_magmoms:R:1 pbc="T T T"
Si      -1.26933667       1.45357299       1.30481540       0.00000000
Si       1.34158087       1.35539316      -1.35893898       0.00000000
Si      -1.37739022      -1.35588186      -1.35666807       0.00000000
Si       1.30061152      -1.27951434       1.52953322       0.00000000
Si      -2.31062803      -0.30426462       2.55340833       0.00000000
Si      -0.53608272      -2.03453955       3.03886903       0.00000000
Si       2.67996727      -2.71691136       0.02917788       0.00000000
Si       2.69594776       0.00231318      -2.71522856       0.00000000
Si       2.70550999       2.70875007       0.00237414       0.00000000
Si      -0.01851033      -2.71454931      -2.71440277       0.00000000
