10
Lattice="16.28999089631971 0.0 0.0 0.0 16.28999089631971 0.0 0.0 0.0 34.40785480372833" Properties=species:S:1:pos:R:3:initial_magmoms:R:1 pbc="T T T"
Si      -0.65438885      -1.68533082      -1.48136220       0.00000000
Si       1.65771113      -0.66829725       1.51274218       0.00000000
Si      -1.48295919       0.93799449       1.59697266       0.00000000
Si       0.64615425       1.57866390      -1.94748567       0.00000000
Si      -1.84806696       2.80878696       0.22261894       0.00000000
Si       0.26537713       3.60761598      -0.58830583       0.00000000
Si       0.54184124      -2.10413043       3.00869332       0.00000000
Si       2.94497950       0.99746928      -2.32731419       0.00000000
Si      -0.72742197      -3.85629912      -0.50641509       0.00000000
Si       2.64475480       1.03866669       2.81401357       0.00000000
