10
Lattice="16.28999089631971 0.0 0.0 0.0 16.28999089631971 0.0 0.0 0.0 34.40785480372833" Properties=species:S:1:pos:R:3:initial_magmoms:R:1 pbc="T T T"
Si       0.85142943      -1.23356025       1.77328587       0.00000000
Si      -0.01360215      -1.60792074      -1.71103476       0.00000000
Si       1.78999407       1.53059211      -0.72259976       0.00000000
Si      -1.82486933       1.46181573       1.09169303       0.00000000
Si      -2.02335321       2.21008059      -1.27900949       0.00000000
Si       0.18179640       2.00246454      -2.59087851       0.00000000
Si       1.97201853       0.54594306       2.85293029       0.00000000
Si       2.27585961      -2.42144334      -1.17093436       0.00000000
Si       2.52659529       2.39402727       1.50403393       0.00000000
Si      -0.89243462      -2.39529789       2.90887405       0.00000000
