10
Lattice="16.28999089631971 0.0 0.0 0.0 16.28999089631971 0.0 0.0 0.0 34.40785480372833" Properties=species:S:1:pos:R:3:initial_magmoms:R:1 pbc="T T T"
Si      -0.70454250      -1.72268379      -1.55588966       0.00000000
Si       1.34442999       1.30865715      -1.57071945       0.00000000
Si       1.60819767      -0.47187243       1.86827874       0.00000000
Si      -2.20514961       0.20761605       1.31186901       0.00000000
Si      -0.18179640      -2.00246454       2.59087851       0.00000000
Si      -1.10408244      -0.20403225      -3.44846036       0.00000000
Si      -0.19539855      -3.61038528       0.87984375       0.00000000
Si       1.20866913      -3.05483112      -1.79984148       0.00000000
Si       3.61198170      -0.85543677       0.66352144       0.00000000
Si       3.58981101       0.91631250      -0.95774317       0.00000000
