10
Lattice="16.28999089631971 0.0 0.0 0.0 16.28999089631971 0.0 0.0 0.0 34.40785480372833" Properties=species:S:1:pos:R:3:initial_magmoms:R:1 pbc="T T T"
Si      -2.29454491      -0.36170316      -0.36179880       0.00000000
Si       0.05607995       1.00484865       2.12547760       0.00000000
Si       1.27781041      -1.95406695      -0.37483938       0.00000000
Si       0.39534853       1.75874238      -1.55754123       0.00000000
Si      -0.17725638      -2.82383892      -2.11549932       0.00000000
Si       0.13151732       3.30979310       1.56208307       0.00000000
Si      -3.35541487       1.11405681       1.08157711       0.00000000
Si      -1.76257867       2.18812723      -2.40335559       0.00000000
Si      -2.59907017       0.01593162      -2.65597820       0.00000000
Si      -2.05884490       0.90049491       3.08587018       0.00000000
