10
Lattice="10.86 0.0 0.0 0.0 10.86 0.0 0.0 0.0 10.86" Properties=species:S:1:pos:R:3:initial_magmoms:R:1 pbc="T T T"
Si       1.35750000       1.35750000       1.35750000       0.00000000
Si      -1.35750000      -1.35750000       1.35750000       0.00000000
Si       1.35750000      -1.35750000      -1.35750000       0.00000000
Si      -1.35750000       1.35750000      -1.35750000       0.00000000
Si      -1.82382840       2.47904478       0.91713786       0.00000000
Si      -0.08987736      -2.74887234      -2.53196556       0.00000000
Si      -0.11224896       2.64886260       2.66515260       0.00000000
Si       2.85675558       2.51539320       0.17997192       0.00000000
Si      -2.83820670      -2.54215224       0.10045500       0.00000000
Si       0.17243508       2.94898956      -2.41181052       0.00000000
