10
Lattice="10.86 0.0 0.0 0.0 10.86 0.0 0.0 0.0 10.86" Properties=species:S:1:pos:R:3:initial_magmoms:R:1 pbc="T T T"
Si      -1.49925558      -1.15789320       1.17752808       0.00000000
Si       1.21574442      -1.15789320      -1.53747192       0.00000000
Si       1.21574442       1.55710680       1.17752808       0.00000000
Si      -1.41013842       1.59916758      -1.06199940       0.00000000
Si      -0.14175558      -2.51539320       2.53502808       0.00000000
Si       2.57324442      -2.51539320      -0.17997192       0.00000000
Si       2.57324442       0.19960680       2.53502808       0.00000000
Si      -2.68432050       0.43359636      -2.59178244       0.00000000
Si      -2.85675558      -2.51539320      -0.17997192       0.00000000
Si      -0.14175558      -2.51539320      -2.89497192       0.00000000
