10
Lattice="16.28999089631971 0.0 0.0 0.0 16.28999089631971 0.0 0.0 0.0 34.36671206372826" Properties=species:S:1:pos:R:3:initial_magmoms:R:1 pbc="T T T"
Si       0.72641997       2.29247541       0.11670942       0.00000000
Si      -0.19158669      -0.96870114      -2.19651526       0.00000000
Si      -2.21930399      -0.51823377       0.81136416       0.00000000
Si       1.53026631      -0.95881311       1.62949856       0.00000000
Si       0.14125059       1.01955852      -3.48729532       0.00000000
Si       0.90530046       2.55712275       2.46546930       0.00000000
Si       0.08887824      -2.13558642       3.03478857       0.00000000
Si      -3.30966211      -1.20288618      -1.22046573       0.00000000
Si       1.76792112      -2.38454649      -2.27085050       0.00000000
Si      -1.91578219      -2.61491967       1.92264678       0.00000000
