10
Lattice="16.28999089631971 0.0 0.0 0.0 16.28999089631971 0.0 0.0 0.0 34.36671206372826" Properties=species:S:1:pos:R:3:initial_magmoms:R:1 pbc="T T T"
Si       1.34973238       1.36593279      -1.36267526       0.00000000
Si      -1.42249071       1.29774285       1.35861999       0.00000000
Si      -1.36911876      -1.34899838      -1.36477163       0.00000000
Si       1.38592877      -1.37141342       1.35951352       0.00000000
Si      -0.02128126      -2.57897483       2.80518444       0.00000000
Si      -2.75331855      -2.67353828       0.00154650       0.00000000
Si       2.70520700       0.00741358      -2.72359782       0.00000000
Si      -0.00950521      -2.70707939      -2.72332289       0.00000000
Si       2.71379183       2.71748151       0.02034510       0.00000000
Si       2.71491583      -2.71670678      -0.00171834       0.00000000
