10
Lattice="16.28999089631971 0.0 0.0 0.0 16.28999089631971 0.0 0.0 0.0 34.36671206372826" Properties=species:S:1:pos:R:3:initial_magmoms:R:1 pbc="T T T"
Si      -1.14041403       2.04322442      -0.50577518       0.00000000
Si      -1.50200316      -0.73622655       1.74539697       0.00000000
Si       1.86887025      -0.95583204      -1.25026168       0.00000000
Si       2.05752474       0.76439196       1.41663103       0.00000000
Si       0.40962834       0.15776865       2.98901694       0.00000000
Si      -1.50869835      -1.90143396      -2.25466377       0.00000000
Si       0.74173257      -2.68499925      -2.43381754       0.00000000
Si      -3.64348314       0.28882170       1.09430546       0.00000000
Si      -2.01489381       1.92400280      -2.66864542       0.00000000
Si      -3.12249001       2.52571793       0.67812434       0.00000000
