10
Lattice="16.28999089631971 0.0 0.0 0.0 16.28999089631971 0.0 0.0 0.0 34.36671206372826" Properties=species:S:1:pos:R:3:initial_magmoms:R:1 pbc="T T T"
Si       1.35394335      -1.35447971      -1.36281273       0.00000000
Si      -1.35571896       1.35410650      -1.36150679       0.00000000
Si       1.35799956       1.35685788       1.35752025       0.00000000
Si      -1.35741312      -1.35811238       1.35700475       0.00000000
Si       2.70373275       0.03933751      -2.71182034       0.00000000
Si       0.03476286       2.71129971      -2.71487211       0.00000000
Si       2.71533123       2.71344999      -0.00182144       0.00000000
Si       0.00102627       2.71403643       2.71528107       0.00000000
Si      -2.71445157      -0.00094350       2.71521234       0.00000000
Si      -2.71446786       2.71586091      -0.00024057       0.00000000
