10
Lattice="16.28999089631971 0.0 0.0 0.0 16.28999089631971 0.0 0.0 0.0 34.36671206372826" Properties=species:S:1:pos:R:3:initial_magmoms:R:1 pbc="T T T"
Si       1.34511417       1.36368824       1.34765700       0.00000000
Si       1.35682668      -1.35297944      -1.35831069       0.00000000
Si      -1.35840681       1.35978678      -1.35786392       0.00000000
Si      -1.34869797      -1.36433357       1.36401556       0.00000000
Si      -2.67768504      -0.01904021       2.72524742       0.00000000
Si      -2.71199178      -2.71192382       0.00189017       0.00000000
Si       2.71454931      -2.71164689       0.00611728       0.00000000
Si      -0.00014661      -2.71192382      -2.71452500       0.00000000
Si      -2.71480995       0.00282108      -2.71479994       0.00000000
Si       2.71511946       0.00345474      -2.71486867       0.00000000
