10
Lattice="16.28999089631971 0.0 0.0 0.0 16.28999089631971 0.0 0.0 0.0 34.36671206372826" Properties=species:S:1:pos:R:3:initial_magmoms:R:1 pbc="T T T"
Si       1.21456611      -1.33914226      -1.49258151       0.00000000
Si      -1.47484773      -1.33023814       1.28579688       0.00000000
Si       1.86113250       0.91657314       1.31397760       0.00000000
Si      -1.48037004       1.36702422      -1.45415950       0.00000000
Si       2.68192044      -2.52867878      -0.14385914       0.00000000
Si      -0.08089614      -2.30121825       2.98059224       0.00000000
Si       2.65647546       2.71254564      -0.03038019       0.00000000
Si       2.58567912       0.01617597      -2.84016977       0.00000000
Si       3.57291828      -0.68577642       1.28205091       0.00000000
Si      -2.80823310      -2.72187071      -0.11499108       0.00000000
