10
Lattice="16.28999089631971 0.0 0.0 0.0 16.28999089631971 0.0 0.0 0.0 34.36671206372826" Properties=species:S:1:pos:R:3:initial_magmoms:R:1 pbc="T T T"
Si      -0.98865639       1.91826316      -0.88566503       0.00000000
Si      -1.59633855      -1.70332054      -0.18073464       0.00000000
Si       1.64786382      -1.02450579      -1.35511458       0.00000000
Si       0.57516732      -0.39177939       2.26511126       0.00000000
Si       2.05291467      -2.86131148       0.03529463       0.00000000
Si      -2.41393365       2.45083213       0.95518893       0.00000000
Si      -0.21994758      -3.54752773       0.42281389       0.00000000
Si       0.44623197      -1.38809275      -3.30226484       0.00000000
Si       0.93978639       3.35219041      -1.10801778       0.00000000
Si      -1.77521904      -1.96796788      -2.52949452       0.00000000
