10
Lattice="16.28999089631971 0.0 0.0 0.0 16.28999089631971 0.0 0.0 0.0 34.36671206372826" Properties=species:S:1:pos:R:3:initial_magmoms:R:1 pbc="T T T"
Si      -1.31781213      -1.36617714      -1.36181953       0.00000000
Si      -1.35290079       1.35000117       1.35480528       0.00000000
Si       1.36275624      -1.36402686       1.35123114       0.00000000
Si       1.36013355       1.35361755      -1.37820559       0.00000000
Si       0.56070180      -2.12965686      -2.73504538       0.00000000
Si       2.41341237      -0.31004757      -2.69252342       0.00000000
Si      -2.71922454      -0.01493793      -2.58791453       0.00000000
Si      -2.70537804       2.71138905      -0.00491444       0.00000000
Si      -2.70951570      -0.00487071       2.71105396       0.00000000
Si       0.00407250       2.70961344       2.71174130       0.00000000
