10
Lattice="16.28999089631971 0.0 0.0 0.0 16.28999089631971 0.0 0.0 0.0 34.36671206372826" Properties=species:S:1:pos:R:3:initial_magmoms:R:1 pbc="T T T"
Si      -1.98394281       0.48489791       1.11595650       0.00000000
Si       1.32815628      -1.73491988       0.85473497       0.00000000
Si      -0.31671018      -0.90629415      -2.18486494       0.00000000
Si       0.94690512       2.21604762       0.41164471       0.00000000
Si       1.56514320       0.48025689      -2.63867763       0.00000000
Si      -3.58028855       0.67755486      -0.58196623       0.00000000
Si       3.54960729      -1.15504475       0.08196465       0.00000000
Si       3.51411138       0.85891143      -1.22101560       0.00000000
Si       1.50703677      -1.47027254       3.20349486       0.00000000
Si      -2.18123100       2.71277859       1.78387392       0.00000000
