10
Lattice="16.28999089631971 0.0 0.0 0.0 16.28999089631971 0.0 0.0 0.0 34.36671206372826" Properties=species:S:1:pos:R:3:initial_magmoms:R:1 pbc="T T T"
Si      -0.92022210      -1.64006091       1.35872515       0.00000000
Si       0.68418000      -1.65053538      -1.55813540       0.00000000
Si       1.80030564       1.10488554       1.13506646       0.00000000
Si      -1.86761592       1.62106677      -0.31842430       0.00000000
Si      -2.29384377      -0.28157265       2.59873867       0.00000000
Si       0.44584101       2.43553419       2.57432455       0.00000000
Si      -1.54261413      -2.68903917      -2.05445973       0.00000000
Si      -2.41095258       1.00519074      -2.68911016       0.00000000
Si       2.53666251       2.82227508      -0.35708687       0.00000000
Si       2.09702799      -0.63987120      -3.13343763       0.00000000
