10
Lattice="16.28999089631971 0.0 0.0 0.0 16.28999089631971 0.0 0.0 0.0 34.36671206372826" Properties=species:S:1:pos:R:3:initial_magmoms:R:1 pbc="T T T"
Si      -1.25582868       0.44942481       2.02499091       0.00000000
Si       2.24528328      -0.86400531       0.64832839       0.00000000
Si      -0.38063214       2.47744836       0.00010310       0.00000000
Si      -1.09871163      -2.32709166       0.30383627       0.00000000
Si      -2.74947507      -0.88876611      -0.82593565       0.00000000
Si       1.48030488      -0.13102047       2.82181794       0.00000000
Si       1.12238100      -3.03906240      -0.35418353       0.00000000
Si       1.73591127       2.18106810       2.30968491       0.00000000
Si      -0.38291274      -1.20459663       3.79432770       0.00000000
Si      -1.05261093      -3.07797921       2.54138541       0.00000000
