10
Lattice="16.28999089631971 0.0 0.0 0.0 16.28999089631971 0.0 0.0 0.0 34.36671206372826" Properties=species:S:1:pos:R:3:initial_magmoms:R:1 pbc="T T T"
Si      -1.41284799      -1.01066418       1.57530223       0.00000000
Si       2.08070541      -0.86975568      -0.79772057       0.00000000
Si      -1.22365593      -1.05197562      -1.82889434       0.00000000
Si       0.36209412       2.51814078       0.32462814       0.00000000
Si      -2.26530369      -2.75002893      -0.65403326       0.00000000
Si      -2.09702799       0.63987120       3.13343763       0.00000000
Si       2.54114226       0.18197559      -2.91209934       0.00000000
Si       1.82907378      -2.97165438      -1.79724258       0.00000000
Si       2.50020549       2.99825595      -0.60131470       0.00000000
Si      -2.94054048       0.20893554      -2.73102103       0.00000000
