10
Lattice="16.28999089631971 0.0 0.0 0.0 16.28999089631971 0.0 0.0 0.0 34.36671206372826" Properties=species:S:1:pos:R:3:initial_magmoms:R:1 pbc="T T T"
Si      -1.35221661      -1.34926812       1.36740069       0.00000000
Si       1.35581670       1.36661697       1.36925649       0.00000000
Si       1.35446463      -1.33064865      -1.43925809       0.00000000
Si      -1.45456668       1.10739420      -1.53890786       0.00000000
Si       0.34503849       2.17064250      -2.72022786       0.00000000
Si      -0.44584101      -2.43553419      -2.57432455       0.00000000
Si       2.09082150       0.38674089      -2.93141142       0.00000000
Si      -2.31345693      -0.81446742      -2.89274885       0.00000000
Si       2.71329498      -2.70703962      -0.00589046       0.00000000
Si      -2.71643895       2.71019988      -0.03212946       0.00000000
