10
Lattice="16.28999089631971 0.0 0.0 0.0 16.28999089631971 0.0 0.0 0.0 34.36671206372826" Properties=species:S:1:pos:R:3:initial_magmoms:R:1 pbc="T T T"
Si      -1.35593073      -1.35477414      -1.35741715       0.00000000
Si      -1.35228177       1.36005210       1.35769209       0.00000000
Si       1.36117611      -1.35192339       1.35769209       0.00000000
Si       1.35933534       1.35873261      -1.35624868       0.00000000
Si      -2.70514998       0.00646713       2.71851154       0.00000000
Si      -2.71349046      -2.71288773       0.00185580       0.00000000
Si       0.00087966      -2.71311579      -2.71352837       0.00000000
Si      -2.71274112       0.00172674      -2.71435317       0.00000000
Si      -2.71275741       2.71520091       0.00134030       0.00000000
Si       2.71625976      -2.71324611       0.00082480       0.00000000
