10
Lattice="16.28999089631971 0.0 0.0 0.0 16.28999089631971 0.0 0.0 0.0 34.36671206372826" Properties=species:S:1:pos:R:3:initial_magmoms:R:1 pbc="T T T"
Si       2.14988904      -0.68587416      -0.69764464       0.00000000
Si       0.03319902       2.30788575       0.60485447       0.00000000
Si      -0.25076826      -0.89034624       2.27538691       0.00000000
Si      -1.22896647      -0.24614190      -2.11671571       0.00000000
Si      -3.35815092      -1.24634790       0.30809775       0.00000000
Si       3.28618170       1.35943308      -0.89405051       0.00000000
Si      -2.05530930      -2.31138810       1.97938625       0.00000000
Si       2.35274841       2.73298959       0.81545380       0.00000000
Si      -2.07647001       0.43135920       3.04334589       0.00000000
Si       1.88354754      -1.82764026      -2.73700085       0.00000000
