10
Lattice="16.28999089631971 0.0 0.0 0.0 16.28999089631971 0.0 0.0 0.0 34.36671206372826" Properties=species:S:1:pos:R:3:initial_magmoms:R:1 pbc="T T T"
Si       1.20163185       0.36358695       1.94715026       0.00000000
Si       1.19796660      -1.26356643      -1.60265815       0.00000000
Si      -0.03549591       2.01395618      -1.30298025       0.00000000
Si      -2.22145101      -0.57987513       0.77277032       0.00000000
Si      -0.44623197       1.38809275       3.30226484       0.00000000
Si       3.36280986       0.87325544       1.20596297       0.00000000
Si      -0.46121877      -1.50083028      -3.35000023       0.00000000
Si      -3.54960729       1.15504475      -0.08196465       0.00000000
Si      -1.98446409       1.63530164      -2.72064228       0.00000000
Si      -2.04257052      -0.31522779       3.12153020       0.00000000
