10
Lattice="16.28999089631971 0.0 0.0 0.0 16.28999089631971 0.0 0.0 0.0 34.36671206372826" Properties=species:S:1:pos:R:3:initial_magmoms:R:1 pbc="T T T"
Si       0.75142512       1.67172867       1.43951927       0.00000000
Si      -1.44138807      -1.17677331       1.40529001       0.00000000
Si       1.92891519      -1.37347506      -0.25228617       0.00000000
Si      -1.53026631       0.95881311      -1.62949856       0.00000000
Si       2.19717891      -1.17465561      -2.59458511       0.00000000
Si      -0.62496585       3.51593586       0.83597074       0.00000000
Si      -0.80384634       3.25128852      -1.51278914       0.00000000
Si       1.15175187      -3.53111814       0.34404535       0.00000000
Si      -0.25436835      -3.06716265       2.21215213       0.00000000
Si       0.04991256       1.19638647       3.64012418       0.00000000
