10
Lattice="16.28999089631971 0.0 0.0 0.0 16.28999089631971 0.0 0.0 0.0 34.36671206372826" Properties=species:S:1:pos:R:3:initial_magmoms:R:1 pbc="T T T"
Si      -1.37461536      -1.31263663      -1.35928327       0.00000000
Si       1.34864910      -1.35131948       1.35463345       0.00000000
Si       1.35399222       1.34697775      -1.37084423       0.00000000
Si      -1.36301688       1.36147585       1.35071564       0.00000000
Si      -2.16507132       0.59584585      -2.73556088       0.00000000
Si      -0.31236075       2.41545514      -2.69303892       0.00000000
Si      -0.07385886      -2.67970567      -2.69379155       0.00000000
Si       2.71013472      -2.70914170      -0.01020692       0.00000000
Si       2.70922248       0.00393404       2.71057283       0.00000000
Si      -0.00482184      -2.70984217       2.71029789       0.00000000
