10
Lattice="16.28999089631971 0.0 0.0 0.0 16.28999089631971 0.0 0.0 0.0 34.36671206372826" Properties=species:S:1:pos:R:3:initial_magmoms:R:1 pbc="T T T"
Si      -1.35733167      -1.35659210       1.35934169       0.00000000
Si       1.36301688      -1.36147585      -1.35071564       0.00000000
Si       1.35829278       1.35829278       1.36002902       0.00000000
Si      -1.36275624       1.36402686      -1.35123114       0.00000000
Si      -0.01159848      -2.67411248      -2.70999890       0.00000000
Si      -2.68056837      -0.00215028      -2.71305067       0.00000000
Si       2.71166598      -2.71279532       0.00391781       0.00000000
Si       2.71458189       2.71410948       0.00189017       0.00000000
Si      -2.71533123      -2.71344999       0.00182144       0.00000000
Si      -2.71565703       2.71402803       0.00357414       0.00000000
