10
Lattice="16.28999089631971 0.0 0.0 0.0 16.28999089631971 0.0 0.0 0.0 34.36671206372826" Properties=species:S:1:pos:R:3:initial_magmoms:R:1 pbc="T T T"
Si       2.12929848      -0.65373059       0.69334880       0.00000000
Si      -1.13417496       0.36238164      -2.02725911       0.00000000
Si      -1.34436483      -1.39487672       1.40236884       0.00000000
Si      -0.40164624       2.22543636       0.79854537       0.00000000
Si      -3.00355020      -1.63214057      -0.34497325       0.00000000
Si       0.63799785      -3.44555966      -0.41728085       0.00000000
Si      -2.57782734       1.88264589       1.70204673       0.00000000
Si       1.99617660      -0.96868145       3.03327644       0.00000000
Si       2.85061968      -2.41176368      -0.70314332       0.00000000
Si      -3.45163923       0.34531461      -1.58382518       0.00000000
