10
Lattice="16.28999089631971 0.0 0.0 0.0 16.28999089631971 0.0 0.0 0.0 34.36671206372826" Properties=species:S:1:pos:R:3:initial_magmoms:R:1 pbc="T T T"
Si       0.25163163       2.10189870       0.99952201       0.00000000
Si      -1.64786382       0.68033556      -1.52272113       0.00000000
Si       2.06995401      -0.16659783      -1.16709419       0.00000000
Si      -1.51456275      -1.08006284       1.71101645       0.00000000
Si       0.71206848       3.15362997      -1.11485676       0.00000000
Si       3.18642174      -1.66888769       0.24623763       0.00000000
Si      -3.05272971       1.91967876      -0.03165176       0.00000000
Si      -0.40627260       2.10937581      -2.93268501       0.00000000
Si       0.11921022      -2.60621171       2.59956829       0.00000000
Si      -2.08277424      -3.07135637       0.40800183       0.00000000
