10
Lattice="16.28999089631971 0.0 0.0 0.0 16.28999089631971 0.0 0.0 0.0 34.36671206372826" Properties=species:S:1:pos:R:3:initial_magmoms:R:1 pbc="T T T"
Si       1.35669636      -1.35285192      -1.35652362       0.00000000
Si      -1.35628911      -1.35581670       1.35813885       0.00000000
Si      -1.35293337       1.35995436      -1.35982282       0.00000000
Si       1.35824391       1.35870003       1.35803575       0.00000000
Si       2.69983944       0.00027693      -2.71036663       0.00000000
Si       2.71365336      -2.71275741      -0.00127157       0.00000000
Si       0.00035838      -2.71288773       2.71476557       0.00000000
Si       2.71381626       2.71474479       0.00079043       0.00000000
Si      -2.71458189      -2.71410948      -0.00189017       0.00000000
Si      -2.71448415       0.00164529       2.71431880       0.00000000
