10
Lattice="16.28999089631971 0.0 0.0 0.0 16.28999089631971 0.0 0.0 0.0 34.36671206372826" Properties=species:S:1:pos:R:3:initial_magmoms:R:1 pbc="T T T"
Si       1.34516304       1.33584516       1.36817394       0.00000000
Si      -1.36117611       1.35192339      -1.35769209       0.00000000
Si       1.35508365      -1.36132272      -1.35686728       0.00000000
Si      -1.35811359      -1.37184606       1.38075216       0.00000000
Si       2.63160063      -0.14797836       2.69232409       0.00000000
Si      -0.00184077       2.71065600      -2.71394077       0.00000000
Si      -2.71345788       2.71197549       0.00000000       0.00000000
Si       2.71278999      -0.00335574      -2.71531544       0.00000000
Si       2.71511946       2.71349046       0.00560178       0.00000000
Si      -2.71710684      -0.00285075      -2.71510924       0.00000000
