10
Lattice="16.28999089631971 0.0 0.0 0.0 16.28999089631971 0.0 0.0 0.0 34.36671206372826" Properties=species:S:1:pos:R:3:initial_magmoms:R:1 pbc="T T T"
Si      -0.44227350      -0.44970174       2.29418551       0.00000000
Si       2.08050993      -0.91847907      -0.70321206       0.00000000
Si      -1.95712947      -0.97174737      -0.97426246       0.00000000
Si      -0.21232386       2.35268325      -0.43047768       0.00000000
Si      -2.51196687       0.60944148       2.59479131       0.00000000
Si      -1.15189848      -3.13257189      -1.52254930       0.00000000
Si      -3.63030795      -0.43481268       0.77696306       0.00000000
Si       3.72664701      -0.10103058       0.69778211       0.00000000
Si      -1.15408134      -2.71078632       2.54255388       0.00000000
Si       2.56932396      -0.18801918      -2.93838989       0.00000000
