10
Lattice="16.28999089631971 0.0 0.0 0.0 16.28999089631971 0.0 0.0 0.0 34.36671206372826" Properties=species:S:1:pos:R:3:initial_magmoms:R:1 pbc="T T T"
Si      -2.06969337       1.05914322       0.30060580       0.00000000
Si       1.01309139       1.20567177       1.76356318       0.00000000
Si       0.44227350       0.44970174      -2.29418551       0.00000000
Si      -0.71180784      -2.26108458       0.24836837       0.00000000
Si      -2.53013022       0.00741195       2.41498457       0.00000000
Si      -3.18803445       0.01488906      -1.51722245       0.00000000
Si       1.83760974       3.06701604       0.56729163       0.00000000
Si      -1.51485597      -0.52204563      -3.26844798       0.00000000
Si      -2.78176185      -2.09448675       1.41546256       0.00000000
Si       0.22994964       2.80238499      -2.72466319       0.00000000
