10
Lattice="16.28999089631971 0.0 0.0 0.0 16.28999089631971 0.0 0.0 0.0 34.36671206372826" Properties=species:S:1:pos:R:3:initial_magmoms:R:1 pbc="T T T"
Si       0.06108750      -0.14113656      -2.32676517       0.00000000
Si      -1.75397688      -0.93265137       1.38809431       0.00000000
Si       2.09855925      -1.42781850      -0.02467531       0.00000000
Si       1.13753070       1.93820049       1.28747883       0.00000000
Si      -0.08762391      -2.00112876       2.71028900       0.00000000
Si       0.48156498       2.06182530      -2.96110630       0.00000000
Si       1.32452361      -3.31352121       1.20163761       0.00000000
Si       2.99633373      -0.66394782      -2.20816558       0.00000000
Si       2.60978832       0.72775575       2.72337241       0.00000000
Si      -2.80725570       0.73101375       2.70241214       0.00000000
