10
Lattice="16.28999089631971 0.0 0.0 0.0 16.28999089631971 0.0 0.0 0.0 34.36671206372826" Properties=species:S:1:pos:R:3:initial_magmoms:R:1 pbc="T T T"
Si       1.49788179       1.24207992      -1.21794493       0.00000000
Si      -1.07786043       1.60853976       1.40643786       0.00000000
Si       1.64556693      -1.11058704       1.39429265       0.00000000
Si      -1.50394167      -1.23377202      -1.45749449       0.00000000
Si      -2.42815482       0.26179659       2.77485236       0.00000000
Si       0.29383902      -2.45706957       2.77248106       0.00000000
Si      -2.66605398      -2.60244153      -0.01533787       0.00000000
Si       2.64297105      -0.24478983      -2.76164321       0.00000000
Si      -2.49469947       3.00429954       0.08642202       0.00000000
Si       3.14768412      -2.44397241      -0.05903861       0.00000000
