10
Lattice="16.28999089631971 0.0 0.0 0.0 16.28999089631971 0.0 0.0 0.0 34.36671206372826" Properties=species:S:1:pos:R:3:initial_magmoms:R:1 pbc="T T T"
Si      -1.34516304      -1.33584516      -1.36817394       0.00000000
Si       1.28643759      -1.48382352       1.32415016       0.00000000
Si       1.36995642       1.37764530      -1.36257216       0.00000000
Si      -1.41437925       1.20321198       1.53481822       0.00000000
Si       0.52681860       2.05913745       2.65905710       0.00000000
Si       2.29384377       0.21346416       2.62455290       0.00000000
Si      -2.70327663      -2.70769122       0.01257822       0.00000000
Si       0.00992061      -2.69716788      -2.72504122       0.00000000
Si      -2.70686043       2.72393235       0.03038019       0.00000000
Si       2.74105314      -2.69073333      -0.02426291       0.00000000
