10
Lattice="16.28999089631971 0.0 0.0 0.0 16.28999089631971 0.0 0.0 0.0 34.36671206372826" Properties=species:S:1:pos:R:3:initial_magmoms:R:1 pbc="T T T"
Si       1.78061103      -0.27306927       1.51162067       0.00000000
Si      -1.70000811       1.49517765       0.72726877       0.00000000
Si       1.23486345       0.84304008      -1.86941271       0.00000000
Si      -1.39805667      -1.95924717       0.16475411       0.00000000
Si       1.54438974      -1.33555194      -2.71376893       0.00000000
Si       1.79240499       2.00955069       2.31566472       0.00000000
Si      -1.57354884      -1.88809245       2.56688553       0.00000000
Si       0.70079580      -1.52298468       3.16905939       0.00000000
Si      -3.36932586       1.16879121      -0.87514881       0.00000000
Si       3.25321074      -1.93231980       0.43508282       0.00000000
