10
Lattice="16.28999089631971 0.0 0.0 0.0 16.28999089631971 0.0 0.0 0.0 34.36671206372826" Properties=species:S:1:pos:R:3:initial_magmoms:R:1 pbc="T T T"
Si      -1.16211231      -1.36866951       1.44215662       0.00000000
Si       1.50394167       1.23377202       1.45749449       0.00000000
Si      -0.03339450      -0.52854534      -2.37731864       0.00000000
Si       2.48826492      -0.49435263      -2.52464881       0.00000000
Si      -2.90501199      -2.19931290      -0.06653399       0.00000000
Si      -2.27414916       0.13248657       2.87693328       0.00000000
Si      -1.00683603       1.41915222      -3.37618768       0.00000000
Si       0.42119424      -2.58664023       2.85024408       0.00000000
Si       3.00182346       2.47585194       0.23954956       0.00000000
Si       0.42608124       2.84231178       2.86393234       0.00000000
