10
Lattice="16.28999089631971 0.0 0.0 0.0 16.28999089631971 0.0 0.0 0.0 34.36671206372826" Properties=species:S:1:pos:R:3:initial_magmoms:R:1 pbc="T T T"
Si      -1.30075650       1.36706904       1.33450829       0.00000000
Si       1.05050952       1.52882857      -1.40916455       0.00000000
Si       1.41683904      -1.39575978       1.32001584       0.00000000
Si      -1.87488126      -0.97515198      -1.23255010       0.00000000
Si      -0.40560471       0.81259407      -3.58447554       0.00000000
Si      -2.65054590      -0.02674818       2.68351590       0.00000000
Si       0.07385886       2.67970567       2.69379155       0.00000000
Si       0.06654465      -2.74250295       2.68843034       0.00000000
Si       2.78399358      -0.02943603       2.68358463       0.00000000
Si      -2.09121246       3.27555152      -0.04176933       0.00000000
