10
Lattice="16.28999089631971 0.0 0.0 0.0 16.28999089631971 0.0 0.0 0.0 34.36671206372826" Properties=species:S:1:pos:R:3:initial_magmoms:R:1 pbc="T T T"
Si       0.47027601      -2.11248720      -0.70860763       0.00000000
Si      -0.93250476      -0.04206078       2.20493511       0.00000000
Si       2.21262183       1.03379598      -0.28586247       0.00000000
Si      -2.17375389       0.26109612      -1.23885193       0.00000000
Si       0.44927820      -1.35369900      -2.96024713       0.00000000
Si       1.49130063       2.79182907       1.11062965       0.00000000
Si      -1.98236268       2.05068294       1.81964969       0.00000000
Si      -0.63799785       3.44555966       0.41728085       0.00000000
Si       3.67168455      -0.36781191       1.21067121       0.00000000
Si       0.73681299       0.28432566       3.80735269       0.00000000
