10
Lattice="16.28999089631971 0.0 0.0 0.0 16.28999089631971 0.0 0.0 0.0 34.36671206372826" Properties=species:S:1:pos:R:3:initial_magmoms:R:1 pbc="T T T"
Si       1.67593149       1.61077705      -0.03068949       0.00000000
Si      -2.12929848       0.65373059      -0.69334880       0.00000000
Si       0.72132120      -1.75803309      -1.39649213       0.00000000
Si      -0.13312188      -0.31495086       2.33992763       0.00000000
Si      -1.49130063      -2.79182907      -1.11062965       0.00000000
Si       3.40487064       0.32342166       1.07048931       0.00000000
Si      -3.47366331      -0.74114613       0.70902003       0.00000000
Si       2.10603636      -0.17254368       2.99155522       0.00000000
Si      -0.75448764      -2.50750341       2.69672304       0.00000000
Si      -2.53094472       2.87916695       0.10519656       0.00000000
