10
Lattice="16.28999089631971 0.0 0.0 0.0 16.28999089631971 0.0 0.0 0.0 34.36671206372826" Properties=species:S:1:pos:R:3:initial_magmoms:R:1 pbc="T T T"
Si      -0.72132120       1.75803309       1.39649213       0.00000000
Si      -2.21262183      -1.03379598       0.28586247       0.00000000
Si       1.45906272      -1.40160789       1.49653368       0.00000000
Si       0.88886385       0.43552944      -2.32178200       0.00000000
Si      -1.74234582      -3.14628318      -0.42274516       0.00000000
Si       0.95461029       3.36881014       1.36580263       0.00000000
Si      -2.85061968       2.41176368       0.70314332       0.00000000
Si      -0.87483816      -0.40861836      -3.72098909       0.00000000
Si       2.89989693      -1.16317116      -2.30566400       0.00000000
Si       3.50824698      -0.15648174       1.76036708       0.00000000
