10
Lattice="16.28999089631971 0.0 0.0 0.0 16.28999089631971 0.0 0.0 0.0 34.36671206372826" Properties=species:S:1:pos:R:3:initial_magmoms:R:1 pbc="T T T"
Si      -1.91051793      -0.77349807      -1.09164032       0.00000000
Si       1.35302785      -1.26910503       1.44723117       0.00000000
Si       1.77925570       0.63353439      -1.46993181       0.00000000
Si      -1.31554197       1.45515312       1.42553201       0.00000000
Si       2.63814595       2.55539601      -0.11609082       0.00000000
Si       2.72664952      -2.62759329       0.20721764       0.00000000
Si      -2.54981898       2.82385521      -0.04360451       0.00000000
Si       0.01985099      -2.61461016       2.79492597       0.00000000
Si      -2.78866296      -2.63234997       0.03613318       0.00000000
Si      -2.69528868       0.09686034       2.78681542       0.00000000
