10
Lattice="16.28999089631971 0.0 0.0 0.0 16.28999089631971 0.0 0.0 0.0 34.36671206372826" Properties=species:S:1:pos:R:3:initial_magmoms:R:1 pbc="T T T"
Si      -1.27827630       1.37005416       1.40175367       0.00000000
Si       0.87814503       1.85885190      -1.12777350       0.00000000
Si      -1.78950537      -0.78552009      -1.34629405       0.00000000
Si       1.45253507      -1.33718094       1.37794440       0.00000000
Si      -0.89173089      -0.02164941      -3.52978433       0.00000000
Si      -2.56354101      -2.67122280      -0.11998113       0.00000000
Si      -2.75053392       2.58049890      -0.03413991       0.00000000
Si      -2.62141938       0.01692531       2.75559668       0.00000000
Si       2.78866296       2.63234997      -0.03613318       0.00000000
Si       0.09716985      -2.70384189       2.75037294       0.00000000
