10
Lattice="16.28999089631971 0.0 0.0 0.0 16.28999089631971 0.0 0.0 0.0 34.36671206372826" Properties=species:S:1:pos:R:3:initial_magmoms:R:1 pbc="T T T"
Si       1.35788553      -1.35659704       1.35724532       0.00000000
Si      -1.36057338      -1.35525351      -1.35593938       0.00000000
Si      -1.35729909       1.35876356       1.35679855       0.00000000
Si       1.35599589       1.35889388      -1.35923859       0.00000000
Si      -2.70922248      -0.00393404      -2.71057283       0.00000000
Si       0.00306252      -2.71240785       2.71435317       0.00000000
Si      -2.71404432      -2.71377621      -0.00027493       0.00000000
Si       2.71546155       0.00065323       2.71297850       0.00000000
Si      -0.00172674       2.71560653       2.71390640       0.00000000
Si      -2.71536381       0.00168927       2.71418134       0.00000000
