10
Lattice="16.28999089631971 0.0 0.0 0.0 16.28999089631971 0.0 0.0 0.0 34.36671206372826" Properties=species:S:1:pos:R:3:initial_magmoms:R:1 pbc="T T T"
Si       1.33732333       1.35534429       1.36406711       0.00000000
Si      -1.23427701       1.36870209      -1.46913652       0.00000000
Si      -1.37974671      -1.35829278       1.36128341       0.00000000
Si       1.31554197      -1.45515312      -1.42553201       0.00000000
Si      -0.59497596      -2.22865119      -2.51717233       0.00000000
Si      -2.37687390      -0.48239577      -2.43603591       0.00000000
Si       2.66856983      -2.72425815       0.02169915       0.00000000
Si       2.69181566       2.70304857      -0.03484443       0.00000000
Si       2.69350982       0.00003258       2.72323697       0.00000000
Si      -0.02245533       2.71191033       2.72296204       0.00000000
