10
Lattice="16.28999089631971 0.0 0.0 0.0 16.28999089631971 0.0 0.0 0.0 34.36671206372826" Properties=species:S:1:pos:R:3:initial_magmoms:R:1 pbc="T T T"
Si      -1.35767376       1.35531171       1.36222849       0.00000000
Si       1.35832962      -1.35783666       1.36240033       0.00000000
Si      -1.37165058      -1.35915615      -1.34892857       0.00000000
Si       1.37974671       1.35829278      -1.36128341       0.00000000
Si      -2.70837540       2.71389771       0.00109974       0.00000000
Si       2.71513968      -2.71147050       0.00811055       0.00000000
Si      -2.71479366      -2.71228500       0.00491444       0.00000000
Si       2.71707004       2.71363707       0.00278371       0.00000000
Si      -2.71324611      -0.00073305       2.71947381       0.00000000
Si       0.00094482      -2.71432125       2.71895831       0.00000000
