10
Lattice="16.28999089631971 0.0 0.0 0.0 16.28999089631971 0.0 0.0 0.0 34.36671206372826" Properties=species:S:1:pos:R:3:initial_magmoms:R:1 pbc="T T T"
Si      -1.45485990       0.38115342      -1.76840889       0.00000000
Si      -0.61926435       0.57329397       2.17146192       0.00000000
Si       0.99742041      -1.96669170       0.78576094       0.00000000
Si       2.22640317       1.76700888      -1.19530928       0.00000000
Si       0.47306160       1.21937166      -2.91886959       0.00000000
Si       1.59207057       1.12417290       2.83614886       0.00000000
Si       1.82459403      -2.84156570      -1.31868585       0.00000000
Si       2.82243798      -0.84833433       2.37168249       0.00000000
Si      -1.82669544       2.62951551       2.23772097       0.00000000
Si      -2.16889947      -1.53367092      -2.87257760       0.00000000
