10
Lattice="16.28999089631971 0.0 0.0 0.0 16.28999089631971 0.0 0.0 0.0 34.36671206372826" Properties=species:S:1:pos:R:3:initial_magmoms:R:1 pbc="T T T"
Si      -0.99681768      -1.74560382      -1.14417158       0.00000000
Si       2.24543708      -0.65819745       0.05330280       0.00000000
Si       0.74021760       1.74516399      -1.45653080       0.00000000
Si      -0.48881403      -0.73045989       2.23517784       0.00000000
Si       2.95664382       0.18862191       2.10272845       0.00000000
Si      -0.85110363       3.38232528      -1.01897358       0.00000000
Si       0.84637953      -2.69342118      -2.31253735       0.00000000
Si       0.00123804       0.94964184      -3.56262720       0.00000000
Si      -1.57320675      -3.35742601       0.48226834       0.00000000
Si       1.15732305       0.08698860       3.63617200       0.00000000
