10
Lattice="16.28999089631971 0.0 0.0 0.0 16.28999089631971 0.0 0.0 0.0 34.36671206372826" Properties=species:S:1:pos:R:3:initial_magmoms:R:1 pbc="T T T"
Si      -1.35172791      -1.34648253       1.37818840       0.00000000
Si       1.35812988       1.37344248       1.38069718       0.00000000
Si      -1.64556693       1.11058704      -1.39429265       0.00000000
Si       1.50211719      -1.33338537      -1.45333126       0.00000000
Si      -0.14768514       2.35266696      -2.61223758       0.00000000
Si       2.70296712       2.71394658       0.00240567       0.00000000
Si      -2.72831436      -2.70982521      -0.00154307       0.00000000
Si       2.73639420      -2.70208746       0.01580526       0.00000000
Si      -2.72342736       2.71912680       0.01214520       0.00000000
Si      -0.00102627      -2.70506853       2.73931716       0.00000000
