10
Lattice="16.28999089631971 0.0 0.0 0.0 16.28999089631971 0.0 0.0 0.0 34.36671206372826" Properties=species:S:1:pos:R:3:initial_magmoms:R:1 pbc="T T T"
Si      -1.35557235      -1.35604476       1.35724532       0.00000000
Si      -1.35070164       1.35858600      -1.36112876       0.00000000
Si       1.35767376      -1.35531171      -1.36222849       0.00000000
Si       1.35900954       1.35987291       1.35666108       0.00000000
Si      -0.01397682      -2.71446786      -2.71115706       0.00000000
Si       0.00140094      -2.71298547       2.71404387       0.00000000
Si      -2.71399545       0.00262269       2.71373457       0.00000000
Si      -2.71381626      -2.71474479      -0.00079043       0.00000000
Si       2.71600338      -2.71314837       0.00017183       0.00000000
Si       2.71496514       2.71489140      -0.00054987       0.00000000
