10
Lattice="16.28999089631971 0.0 0.0 0.0 16.28999089631971 0.0 0.0 0.0 34.36671206372826" Properties=species:S:1:pos:R:3:initial_magmoms:R:1 pbc="T T T"
Si       1.35591444       1.35552348       1.35844815       0.00000000
Si      -1.35694071       1.35718506      -1.35748589       0.00000000
Si      -1.35648459      -1.35962856       1.35593938       0.00000000
Si       1.35783666      -1.35796698      -1.35748589       0.00000000
Si      -0.00353493      -2.71233387       2.71531544       0.00000000
Si      -0.00158013       2.71497285       2.71318470       0.00000000
Si       2.71379226      -0.00294849      -2.71469684       0.00000000
Si       0.00184077       2.71410948      -2.71452500       0.00000000
Si      -2.71427238       2.71453302       0.00072170       0.00000000
Si       2.71544290       2.71409319       0.00013747       0.00000000
