10
Lattice="16.28999089631971 0.0 0.0 0.0 16.28999089631971 0.0 0.0 0.0 34.36671206372826" Properties=species:S:1:pos:R:3:initial_magmoms:R:1 pbc="T T T"
Si       1.35294966      -1.35270531       1.35937606       0.00000000
Si      -1.35868374      -1.35558864      -1.35635178       0.00000000
Si       1.35648459       1.35962856      -1.35593938       0.00000000
Si      -1.35635427       1.36125756       1.36456543       0.00000000
Si       0.01474245      -2.70712107       2.70287468       0.00000000
Si      -0.00026064      -2.71425609      -2.71284103       0.00000000
Si       2.71239903       2.71515204       0.00250877       0.00000000
Si       2.71432125       0.00166158      -2.71342527       0.00000000
Si       2.71451673      -2.71476108       0.00161524       0.00000000
Si      -2.71585251       0.00135207      -2.71345963       0.00000000
