10
Lattice="16.28999089631971 0.0 0.0 0.0 16.28999089631971 0.0 0.0 0.0 34.36671206372826" Properties=species:S:1:pos:R:3:initial_magmoms:R:1 pbc="T T T"
Si       1.35267273       1.35493704      -1.39016865       0.00000000
Si      -1.35858600      -1.35840681      -1.38284853       0.00000000
Si      -1.31321835       1.30196196       1.59217629       0.00000000
Si       1.45256301      -1.23429330       1.53234381       0.00000000
Si      -2.20172382      -0.67691466       2.63878073       0.00000000
Si      -0.43469865      -2.52258795       2.60427653       0.00000000
Si       0.45048366       2.14610976       2.99138339       0.00000000
Si      -2.70383049       2.71060713       0.00099664       0.00000000
Si       2.70798444      -2.71425609       0.00391781       0.00000000
Si       2.68276752       2.74488129      -0.02106681       0.00000000
