10
Lattice="16.28999089631971 0.0 0.0 0.0 16.28999089631971 0.0 0.0 0.0 34.36671206372826" Properties=species:S:1:pos:R:3:initial_magmoms:R:1 pbc="T T T"
Si       0.07061715       1.43083215       1.78304912       0.00000000
Si       1.07981523       1.24991541      -1.65743872       0.00000000
Si       1.00307304      -2.11310622       0.14867048       0.00000000
Si      -2.27434464      -0.36510777      -0.60217387       0.00000000
Si       1.14466572      -2.33355879      -2.19720260       0.00000000
Si      -0.78587847      -3.17518164       1.32968320       0.00000000
Si      -0.70079580       1.52298468      -3.16905939       0.00000000
Si      -0.69688620       3.42655263       0.81593493       0.00000000
Si      -1.17568188       0.36743724       3.40808001       0.00000000
Si      -2.09885247      -0.43626249      -3.00430528       0.00000000
