10
Lattice="16.28999089631971 0.0 0.0 0.0 16.28999089631971 0.0 0.0 0.0 34.36671206372826" Properties=species:S:1:pos:R:3:initial_magmoms:R:1 pbc="T T T"
Si      -1.49788179      -1.24207992       1.21794493       0.00000000
Si       1.36801791       1.55976750       1.15610543       0.00000000
Si       1.14508926      -1.48686975      -1.54369828       0.00000000
Si      -0.83896758       0.94799655      -2.09700265       0.00000000
Si       1.58623875       0.75644244      -2.30031623       0.00000000
Si       0.14768514      -2.35266696       2.61223758       0.00000000
Si       2.88951452       1.94913108      -0.64421782       0.00000000
Si      -2.57574222       0.36645984       2.62438279       0.00000000
Si       2.85065226       0.36127962       2.61464325       0.00000000
Si      -3.00182346      -2.47585194      -0.23954956       0.00000000
