10
Lattice="16.28999089631971 0.0 0.0 0.0 16.28999089631971 0.0 0.0 0.0 34.36671206372826" Properties=species:S:1:pos:R:3:initial_magmoms:R:1 pbc="T T T"
Si      -1.34483724      -1.34050410       1.37829150       0.00000000
Si       1.37300658       1.36751292       1.37609203       0.00000000
Si      -1.48263435       1.19848788      -1.45853782       0.00000000
Si       1.30696529      -1.37448504      -1.53244004       0.00000000
Si       2.18034224       0.56280321      -2.60776956       0.00000000
Si       0.03886226       1.58785146      -3.25886107       0.00000000
Si      -2.70296712      -2.71394658      -0.00240567       0.00000000
Si      -2.69619048       2.72860758      -0.01085989       0.00000000
Si      -2.70097974       0.01293426       2.73653346       0.00000000
Si       2.72524274      -2.71298547      -0.02144484       0.00000000
