10
Lattice="16.28999089631971 0.0 0.0 0.0 16.28999089631971 0.0 0.0 0.0 34.36671206372826" Properties=species:S:1:pos:R:3:initial_magmoms:R:1 pbc="T T T"
Si       1.53543024       0.93859722      -1.59045796       0.00000000
Si      -1.00895373      -1.78170246      -1.47515757       0.00000000
Si      -2.01103308       1.59870060      -0.01611800       0.00000000
Si       1.75998693      -0.09532908       1.96811397       0.00000000
Si       2.65717823      -2.23764327       1.32724316       0.00000000
Si       2.95328808       2.29203558      -0.22493026       0.00000000
Si       0.22125078       2.19747213      -3.02856819       0.00000000
Si      -2.89989693       1.16317116       2.30566400       0.00000000
Si      -2.46151674      -0.54740916      -3.00750139       0.00000000
Si      -1.13130792      -2.41702875       2.95784146       0.00000000
