10
Lattice="16.28999089631971 0.0 0.0 0.0 16.28999089631971 0.0 0.0 0.0 34.36671206372826" Properties=species:S:1:pos:R:3:initial_magmoms:R:1 pbc="T T T"
Si       1.62304600       0.99391806      -1.27596800       0.00000000
Si      -0.94454211      -1.67501925      -1.24658444       0.00000000
Si       1.42456864      -1.68562404       1.19293798       0.00000000
Si      -1.84018260       1.71835065       0.49326569       0.00000000
Si      -2.25404634      -0.25423803      -2.60616670       0.00000000
Si       0.44916743       2.46723453      -2.62005086       0.00000000
Si      -2.24199174      -2.89022393       0.36988913       0.00000000
Si       2.61662197       2.77131996      -0.13251812       0.00000000
Si      -1.13829537       3.55990257      -1.16984353       0.00000000
Si      -0.15650129      -3.63613488       1.53419962       0.00000000
