10
Lattice="16.28999089631971 0.0 0.0 0.0 16.28999089631971 0.0 0.0 0.0 34.36671206372826" Properties=species:S:1:pos:R:3:initial_magmoms:R:1 pbc="T T T"
Si       0.30952629      -2.17859202      -0.84435622       0.00000000
Si      -1.23486345      -0.84304008       1.86941271       0.00000000
Si       2.04918426       1.24512615       0.26383340       0.00000000
Si      -1.45906272       1.40160789      -1.49653368       0.00000000
Si       0.54574758      -1.11610935       3.38103339       0.00000000
Si       3.18044398      -0.39317544       1.64723180       0.00000000
Si       3.20082114       0.14310765      -1.83408371       0.00000000
Si       1.22448672       3.48306264       0.97044776       0.00000000
Si      -2.18038392       3.15964098      -0.10004155       0.00000000
Si       2.28757212      -3.11450139      -0.04288968       0.00000000
