10
Lattice="16.28999089631971 0.0 0.0 0.0 16.28999089631971 0.0 0.0 0.0 34.36671206372826" Properties=species:S:1:pos:R:3:initial_magmoms:R:1 pbc="T T T"
Si      -0.63188910       1.82058669      -1.29356376       0.00000000
Si       2.20504698       0.64917279       0.58134763       0.00000000
Si      -0.01179396      -2.28261996      -0.80404404       0.00000000
Si      -1.78849539      -0.10598274       1.66932960       0.00000000
Si       1.90527840       0.42042861       2.87144350       0.00000000
Si      -1.02099204      -2.10170322       2.63644379       0.00000000
Si      -1.79240499      -2.00955069      -2.31566472       0.00000000
Si      -0.66904659       3.68414544       0.15743400       0.00000000
Si      -1.09160919      -3.53253537       0.85339467       0.00000000
Si       3.71326056      -0.87503364      -0.50601575       0.00000000
