10
Lattice="16.28999089631971 0.0 0.0 0.0 16.28999089631971 0.0 0.0 0.0 34.36671206372826" Properties=species:S:1:pos:R:3:initial_magmoms:R:1 pbc="T T T"
Si       0.91217484       1.93613166      -1.08736338       0.00000000
Si      -1.95930323      -0.93002868      -1.03670682       0.00000000
Si      -1.94389289      -0.39576555       1.36051016       0.00000000
Si       1.79561412      -1.71861129       0.00061860       0.00000000
Si      -0.66045036       1.71864387       1.88529014       0.00000000
Si       1.75707198       1.12342356       2.07626607       0.00000000
Si      -0.37184043      -2.02269672      -2.48691414       0.00000000
Si       2.37081402       0.69537123      -2.47708526       0.00000000
Si       0.80203815      -3.49601319      -1.14283128       0.00000000
Si       3.61028754      -0.76178556      -1.12162701       0.00000000
