10
Lattice="16.28999089631971 0.0 0.0 0.0 16.28999089631971 0.0 0.0 0.0 34.36671206372826" Properties=species:S:1:pos:R:3:initial_magmoms:R:1 pbc="T T T"
Si       2.00466043       0.47933325       1.11214179       0.00000000
Si      -0.30352180       2.09668590      -1.11128262       0.00000000
Si      -1.21868585      -0.43502445       2.05818917       0.00000000
Si      -0.30631879      -1.62634473      -1.78672636       0.00000000
Si      -2.00965887      -2.64596841       1.60032121       0.00000000
Si      -2.55597660      -0.97015095      -2.48584877       0.00000000
Si      -1.39387991       1.41203349      -3.14311251       0.00000000
Si       1.40525359       1.75148451       3.00265568       0.00000000
Si       1.91578219       2.61491967      -1.92264678       0.00000000
Si       3.44604850       1.65610656      -0.29314822       0.00000000
