10
Lattice="16.28999089631971 0.0 0.0 0.0 16.28999089631971 0.0 0.0 0.0 34.36671206372826" Properties=species:S:1:pos:R:3:initial_magmoms:R:1 pbc="T T T"
Si      -1.59903847       1.64998152       0.66637092       0.00000000
Si      -0.79097302      -2.21094396      -0.45786796       0.00000000
Si       1.21868585       0.43502445      -2.05818917       0.00000000
Si       1.49087220       0.24465951       1.93591234       0.00000000
Si       3.22334628       0.91435770      -0.94604738       0.00000000
Si       2.62393944       2.18650896       0.94446651       0.00000000
Si       1.20370394      -3.34691082      -1.22074066       0.00000000
Si       2.28118155      -1.97623764       2.28562820       0.00000000
Si      -1.68689044       1.84309947       3.00966649       0.00000000
Si      -0.89281810       3.82717260       0.20798746       0.00000000
