10
Lattice="16.28999089631971 0.0 0.0 0.0 16.28999089631971 0.0 0.0 0.0 34.36671206372826" Properties=species:S:1:pos:R:3:initial_magmoms:R:1 pbc="T T T"
Si       1.35663260      -1.35679410      -1.35789829       0.00000000
Si       1.35688510       1.35728280       1.35727968       0.00000000
Si      -1.35737818       1.35749457      -1.35748589       0.00000000
Si      -1.35952846      -1.35856971       1.35831069       0.00000000
Si      -2.71360213       0.00001629      -2.71466247       0.00000000
Si       2.71393984      -0.00193851      -2.71452500       0.00000000
Si      -2.71544290      -2.71409319      -0.00013747       0.00000000
Si      -2.71488904       2.71506469       0.00013747       0.00000000
Si       2.71532449      -2.71467963      -0.00034367       0.00000000
Si       2.71519417       2.71481006       0.00006873       0.00000000
