10
Lattice="16.28999089631971 0.0 0.0 0.0 16.28999089631971 0.0 0.0 0.0 34.36671206372826" Properties=species:S:1:pos:R:3:initial_magmoms:R:1 pbc="T T T"
Si      -1.35688510      -1.35728280      -1.35727968       0.00000000
Si       1.35830907       1.35752726      -1.35721095       0.00000000
Si      -1.35961354       1.35808101       1.35855125       0.00000000
Si       1.36112724      -1.35721764       1.35947916       0.00000000
Si      -2.71426328       0.00021177      -2.71476557       0.00000000
Si       2.71471221       2.71449297      -0.00027493       0.00000000
Si      -2.71419812       2.71503216      -0.00140904       0.00000000
Si      -0.00025250      -2.71407690      -2.71517797       0.00000000
Si       0.00072002       2.71479922      -2.71517797       0.00000000
Si       0.00950521       2.70707939       2.72332289       0.00000000
