10
Lattice="10.86 0.0 0.0 0.0 10.86 0.0 0.0 0.0 10.86" Properties=species:S:1:pos:R:3:initial_magmoms:R:1 pbc="T T T"
Si       1.29779172      -1.24622844      -1.43089188       0.00000000
Si       1.29779172       1.46877156       1.28410812       0.00000000
Si      -1.41720828       1.46877156      -1.43089188       0.00000000
Si       2.65529172      -2.60372844      -0.07339188       0.00000000
Si       2.65529172       0.11127156       2.64160812       0.00000000
Si       2.65529172       0.11127156      -2.78839188       0.00000000
Si      -0.05970828       2.82627156       2.64160812       0.00000000
Si      -2.89861002       0.26662386      -2.55957168       0.00000000
Si       2.65529172       2.82627156      -0.07339188       0.00000000
Si       0.41946750      -1.98556638      -3.38954718       0.00000000
