10
Lattice="16.28999089631971 0.0 0.0 0.0 16.28999089631971 0.0 0.0 0.0 34.56409401068381" Properties=species:S:1:pos:R:3:initial_magmoms:R:1 pbc="T T T"
Si       0.70085607      -1.65195261       1.51777934       0.00000000
Si       1.29780312       1.38096846      -1.39970833       0.00000000
Si      -1.68544063       0.94734495       1.35204442       0.00000000
Si      -1.43244064      -1.34327340      -1.41719777       0.00000000
Si      -1.85288554      -1.18561878       2.57523383       0.00000000
Si       2.20443936      -0.54664353       2.93480430       0.00000000
Si      -2.71232965       2.53661364      -0.09041972       0.00000000
Si      -0.79927211       2.91514437       2.19737894       0.00000000
Si       2.58207414      -2.78785268       0.11858947       0.00000000
Si       2.65331031       0.03282435      -2.74916045       0.00000000
