10
Lattice="16.28999089631971 0.0 0.0 0.0 16.28999089631971 0.0 0.0 0.0 34.56409401068381" Properties=species:S:1:pos:R:3:initial_magmoms:R:1 pbc="T T T"
Si      -1.35045729      -1.34199368       1.36929191       0.00000000
Si      -1.48919922       1.24110578      -1.32935308       0.00000000
Si       1.35720135       1.38159562       1.36538617       0.00000000
Si       1.38023541      -1.40560613      -1.42638146       0.00000000
Si       0.50261166       1.82086362      -2.62365884       0.00000000
Si       2.47482567       0.25206657      -2.90094672       0.00000000
Si      -2.70993924      -2.70093806      -0.01168958       0.00000000
Si      -0.00065160      -2.69421029       2.72703941       0.00000000
Si       2.72862387      -2.70680246      -0.00778038       0.00000000
Si      -2.71417464       0.01963418       2.72493100       0.00000000
