10
Lattice="16.28999089631971 0.0 0.0 0.0 16.28999089631971 0.0 0.0 0.0 34.56409401068381" Properties=species:S:1:pos:R:3:initial_magmoms:R:1 pbc="T T T"
Si       0.99294066      -1.84073742       1.01639232       0.00000000
Si      -1.50358329      -1.10530908      -1.41702495       0.00000000
Si      -1.35615879       1.05798663       1.77168732       0.00000000
Si       2.36747457       0.67722417      -0.89894346       0.00000000
Si       0.37763478      -2.24120915      -2.81621483       0.00000000
Si       2.59818984      -0.81935442       2.44931676       0.00000000
Si      -0.82135809      -3.00899920       1.97354174       0.00000000
Si       1.67897772       3.22626708       0.65613056       0.00000000
Si      -2.20443936       0.54664353      -2.93480430       0.00000000
Si      -3.45144212      -0.01848915       1.88042602       0.00000000
