10
Lattice="16.28999089631971 0.0 0.0 0.0 16.28999089631971 0.0 0.0 0.0 34.56409401068381" Properties=species:S:1:pos:R:3:initial_magmoms:R:1 pbc="T T T"
Si      -0.99294066       1.84073742      -1.01639232       0.00000000
Si      -1.81429875      -1.16826178       0.95714943       0.00000000
Si       1.60524918       1.02138300       1.43292445       0.00000000
Si       1.22826600      -1.33800847      -2.00907365       0.00000000
Si       1.37453391       2.51796159      -1.91533578       0.00000000
Si       2.15026371      -2.74032728       0.40208433       0.00000000
Si       2.94158304       1.89104094      -0.32130800       0.00000000
Si      -2.49652395       0.73542834      -2.43341727       0.00000000
Si      -0.99782766      -2.01951107       3.00372514       0.00000000
Si      -2.06607699      -3.16148894      -0.35611406       0.00000000
