10
Lattice="16.28999089631971 0.0 0.0 0.0 16.28999089631971 0.0 0.0 0.0 34.56409401068381" Properties=species:S:1:pos:R:3:initial_magmoms:R:1 pbc="T T T"
Si      -0.77742233       1.90811286      -1.11773430       0.00000000
Si       1.85266170      -1.08239719      -1.02461858       0.00000000
Si       0.99865845       1.11115719       1.85847781       0.00000000
Si      -1.56673052      -1.71420389       0.60117362       0.00000000
Si       2.66913279      -1.93364648       1.02195714       0.00000000
Si       1.31786100       2.98458864      -1.22647300       0.00000000
Si      -1.03074065       1.44264240       3.05332464       0.00000000
Si      -2.27589938      -2.40916787      -1.64431856       0.00000000
Si      -3.01409702       1.36941885       1.73048690       0.00000000
Si      -1.38330512       1.28762676      -3.35773079       0.00000000
