10
Lattice="16.28999089631971 0.0 0.0 0.0 16.28999089631971 0.0 0.0 0.0 34.56409401068381" Properties=species:S:1:pos:R:3:initial_magmoms:R:1 pbc="T T T"
Si       1.35589815       1.35619137      -1.35702165       0.00000000
Si      -1.35731538      -1.35769005      -1.35619211       0.00000000
Si       1.35755973      -1.35783666       1.35736729       0.00000000
Si      -1.35764118       1.35765747       1.35750555       0.00000000
Si      -2.71451347      -2.71454768      -0.00006913       0.00000000
Si      -2.71441247       2.71476108       0.00000000       0.00000000
Si       0.00032580       2.71248048      -2.71701582       0.00000000
Si       0.00053757      -2.71601378       2.71352484       0.00000000
Si      -2.71301642      -0.00200367      -2.71705038       0.00000000
Si       0.00097740       2.71560816       2.71452720       0.00000000
