10
Lattice="16.28999089631971 0.0 0.0 0.0 16.28999089631971 0.0 0.0 0.0 34.56409401068381" Properties=species:S:1:pos:R:3:initial_magmoms:R:1 pbc="T T T"
Si      -1.35132066      -1.35993807       1.36116935       0.00000000
Si      -1.35532800       1.35746199      -1.36068545       0.00000000
Si       1.35904212      -1.35676152      -1.35995960       0.00000000
Si       1.36301688       1.35910728       1.37354330       0.00000000
Si      -2.70682785      -0.01179396       2.71062146       0.00000000
Si      -2.71288773       2.71262709      -0.00203928       0.00000000
Si      -2.71186146      -2.71709055       0.00034564       0.00000000
Si       2.71673217       2.71337643      -0.00024195       0.00000000
Si      -2.71394658      -0.00048870      -2.71770710       0.00000000
Si       0.00153126       2.71469592      -2.71763797       0.00000000
