10
Lattice="16.28999089631971 0.0 0.0 0.0 16.28999089631971 0.0 0.0 0.0 34.56409401068381" Properties=species:S:1:pos:R:3:initial_magmoms:R:1 pbc="T T T"
Si       1.44322884      -1.43681058       1.28018563       0.00000000
Si      -2.34131283       0.03846069      -0.59052788       0.00000000
Si       0.88746291       2.12296167      -0.74157305       0.00000000
Si      -1.60370163       0.97573842       1.52922007       0.00000000
Si      -1.17942858      -1.74285081      -2.43258773       0.00000000
Si       2.97746991       1.45305171      -1.75274619       0.00000000
Si      -0.99935892       2.93236290      -2.18427914       0.00000000
Si      -0.25791957       2.37128643       2.99999364       0.00000000
Si       2.72951982      -0.11207520       2.80016813       0.00000000
Si       3.35279151      -2.01271095      -0.18754488       0.00000000
