10
Lattice="16.28999089631971 0.0 0.0 0.0 16.28999089631971 0.0 0.0 0.0 34.56409401068381" Properties=species:S:1:pos:R:3:initial_magmoms:R:1 pbc="T T T"
Si       1.35650088       1.35769005       1.35788576       0.00000000
Si      -1.35892809      -1.35685926       1.35757468       0.00000000
Si       1.36008468      -1.35863487      -1.35760924       0.00000000
Si      -1.35972630       1.36158336      -1.36137673       0.00000000
Si       2.71156824      -2.71676475       0.00048390       0.00000000
Si       2.71231758       2.71627605       0.00082954       0.00000000
Si       2.71389771       0.00055386       2.71473459       0.00000000
Si      -2.71503801      -2.71441899      -0.00027651       0.00000000
Si      -0.00115659      -2.71443528       2.71528761       0.00000000
Si      -0.00128691       2.71538010       2.71525305       0.00000000
