10
Lattice="16.28999089631971 0.0 0.0 0.0 16.28999089631971 0.0 0.0 0.0 34.56409401068381" Properties=species:S:1:pos:R:3:initial_magmoms:R:1 pbc="T T T"
Si       1.19361717      -1.27151595       1.62669087       0.00000000
Si       1.29192732       1.52741556      -1.30144256       0.00000000
Si      -1.46855979      -1.25379243      -1.51950755       0.00000000
Si      -1.70364078       1.31725827       1.25906696       0.00000000
Si      -0.84102012      -2.37500055       2.28876646       0.00000000
Si      -2.57688252      -0.78266934       2.13423031       0.00000000
Si       2.56846059      -2.51286282       0.10528229       0.00000000
Si       2.45214999       0.04217481      -2.86322202       0.00000000
Si      -0.26005356      -2.69117316      -2.90870839       0.00000000
Si      -0.26674875       2.73626388      -2.86972007       0.00000000
