10
Lattice="16.28999089631971 0.0 0.0 0.0 16.28999089631971 0.0 0.0 0.0 34.56409401068381" Properties=species:S:1:pos:R:3:initial_magmoms:R:1 pbc="T T T"
Si       2.09860812       1.02208347      -0.07994679       0.00000000
Si       0.36442359      -1.98206946      -1.22647300       0.00000000
Si       0.00474039      -0.96122403       2.15700806       0.00000000
Si      -1.51964523       1.82444742      -0.22649863       0.00000000
Si       3.36795750      -0.81572175       0.78837286       0.00000000
Si      -0.32610951       1.02211605       3.40764137       0.00000000
Si      -1.94613372       2.14868358       2.11456333       0.00000000
Si       1.96832070      -2.31578640       1.91371126       0.00000000
Si      -1.78240293      -2.55945222      -1.90493198       0.00000000
Si      -3.35916579       0.89269200      -1.36815130       0.00000000
