10
Lattice="16.28999089631971 0.0 0.0 0.0 16.28999089631971 0.0 0.0 0.0 34.56409401068381" Properties=species:S:1:pos:R:3:initial_magmoms:R:1 pbc="T T T"
Si       1.04961357       1.11936735       1.75647911       0.00000000
Si      -1.39963680      -1.50006465       1.12533840       0.00000000
Si       1.62662166      -1.18167660      -1.27081875       0.00000000
Si      -1.26934938       1.83780522      -0.86831965       0.00000000
Si       1.23908256       3.17597985       0.63549579       0.00000000
Si      -3.36795750       0.81572175      -0.78837286       0.00000000
Si      -3.36321711      -0.14550228       1.36863520       0.00000000
Si       3.26666628      -1.52537931       0.46260609       0.00000000
Si       2.93413851      -0.07151310       2.33325047       0.00000000
Si      -3.00353391      -1.16634771      -2.01484586       0.00000000
