10
Lattice="16.28999089631971 0.0 0.0 0.0 16.28999089631971 0.0 0.0 0.0 34.56409401068381" Properties=species:S:1:pos:R:3:initial_magmoms:R:1 pbc="T T T"
Si      -2.21503505       0.72763520      -0.06449664       0.00000000
Si       1.60786047       1.69237299       0.10963737       0.00000000
Si       0.19660238      -1.54936049      -1.77842732       0.00000000
Si       0.80298786      -1.13675108       1.94983076       0.00000000
Si       3.28012671       0.36168035       1.01621950       0.00000000
Si      -2.08634405       2.15856021      -1.97727467       0.00000000
Si      -1.15877516      -1.27840892       3.15580724       0.00000000
Si       1.77502845      -3.02627705      -0.90029146       0.00000000
Si      -1.91350715      -2.48789255      -1.87164674       0.00000000
Si      -2.46275708       2.00323506       1.89577249       0.00000000
