10
Lattice="16.28999089631971 0.0 0.0 0.0 16.28999089631971 0.0 0.0 0.0 34.56409401068381" Properties=species:S:1:pos:R:3:initial_magmoms:R:1 pbc="T T T"
Si      -1.35829278      -1.35690813      -1.35691796       0.00000000
Si       1.35747828      -1.35736425       1.35788576       0.00000000
Si      -1.35749457       1.35784191       1.35740186       0.00000000
Si       1.35755973       1.35737617      -1.35864617       0.00000000
Si       0.00030951       2.71395540       2.71387049       0.00000000
Si       0.00071676      -2.71393029       2.71442351       0.00000000
Si      -2.71387002       0.00198738       2.71456177       0.00000000
Si      -0.00096111      -2.71116099      -2.71874403       0.00000000
Si      -2.71537847      -2.71453302      -0.00010369       0.00000000
Si       2.71437012       0.00001629       2.71559869       0.00000000
