10
Lattice="16.28999089631971 0.0 0.0 0.0 16.28999089631971 0.0 0.0 0.0 34.56409401068381" Properties=species:S:1:pos:R:3:initial_magmoms:R:1 pbc="T T T"
Si       0.90427419       1.32307380       1.63951415       0.00000000
Si      -0.59693076       1.74486949      -1.40724331       0.00000000
Si       1.33858188      -1.60345728      -1.07712146       0.00000000
Si      -2.02360896      -0.75432474       1.03955027       0.00000000
Si      -1.76580342       0.29310597      -2.88226685       0.00000000
Si      -1.05731874       2.50378670       2.14829790       0.00000000
Si      -0.86889231      -2.52488484       2.24334921       0.00000000
Si      -0.25700733      -3.32798184      -1.29923046       0.00000000
Si      -2.00259486      -2.04923313      -2.23187393       0.00000000
Si       2.20801176       2.98283651       0.56584910       0.00000000
