10
Lattice="16.28999089631971 0.0 0.0 0.0 16.28999089631971 0.0 0.0 0.0 34.56409401068381" Properties=species:S:1:pos:R:3:initial_magmoms:R:1 pbc="T T T"
Si       1.35664749      -1.35286006      -1.36103109       0.00000000
Si      -1.35694071      -1.35711990       1.35726360       0.00000000
Si       1.35798327       1.35811359       1.35719447       0.00000000
Si      -1.35620766       1.36044306      -1.35830053       0.00000000
Si       0.00000000      -2.71435079       2.71476915       0.00000000
Si      -2.71472850      -2.71482151      -0.00148626       0.00000000
Si       2.71505430       0.00058644       2.71463090       0.00000000
Si      -2.71495656      -0.00006516       2.71487285       0.00000000
Si       2.71440270      -2.71567166      -0.00176277       0.00000000
Si       0.00061902       2.71591767       2.71463090       0.00000000
