10
Lattice="16.28999089631971 0.0 0.0 0.0 16.28999089631971 0.0 0.0 0.0 34.56409401068381" Properties=species:S:1:pos:R:3:initial_magmoms:R:1 pbc="T T T"
Si      -1.04109390      -1.76181304       1.21482489       0.00000000
Si      -1.38072411       1.93755541       0.29821917       0.00000000
Si       0.35981352      -1.67480815      -1.74175480       0.00000000
Si       2.03701563       0.75011378       1.18053729       0.00000000
Si       0.30095775       1.91393491       2.38336843       0.00000000
Si       2.47829544       1.55581555      -1.94875927       0.00000000
Si       1.28405925      -2.76229597       1.77787430       0.00000000
Si       1.55069397      -0.20900103      -3.18096991       0.00000000
Si       0.92768292      -3.63763912      -0.38238279       0.00000000
Si       0.80726724       3.33613336      -1.76764332       0.00000000
