10
Lattice="16.28999089631971 0.0 0.0 0.0 16.28999089631971 0.0 0.0 0.0 34.56409401068381" Properties=species:S:1:pos:R:3:initial_magmoms:R:1 pbc="T T T"
Si      -1.82325825       1.72315620      -0.10576619       0.00000000
Si      -0.88374879      -2.00836871      -1.26048408       0.00000000
Si       1.92639024       0.95645106      -1.40679398       0.00000000
Si      -0.61468686      -0.33096393       2.52532325       0.00000000
Si       1.70206065       0.25793586       2.04080351       0.00000000
Si      -2.19208014      -0.56952446      -2.80114487       0.00000000
Si       0.54059994       2.17473129      -2.84314027       0.00000000
Si      -1.79295885      -3.25206134       0.52710273       0.00000000
Si      -0.78403770       3.46287933      -1.44892763       0.00000000
Si      -3.56646744       0.78618798      -1.40997387       0.00000000
