10
Lattice="16.28999089631971 0.0 0.0 0.0 16.28999089631971 0.0 0.0 0.0 34.56409401068381" Properties=species:S:1:pos:R:3:initial_magmoms:R:1 pbc="T T T"
Si      -0.38773458       0.55566819       2.20163033       0.00000000
Si      -0.23648193       1.58332284      -1.71282464       0.00000000
Si       0.66872079      -2.07156672      -1.00218647       0.00000000
Si       1.86165378       1.31548266       1.40662116       0.00000000
Si      -2.47801851       0.72751140      -2.03831489       0.00000000
Si       3.50173098      -0.14343345       0.36710545       0.00000000
Si       1.58662971       0.81464661      -3.03981007       0.00000000
Si       2.70661608      -2.30637892       0.06100566       0.00000000
Si      -2.59660971      -2.55061652       0.58026233       0.00000000
Si       0.99813717      -1.43161407      -3.30847693       0.00000000
