10
Lattice="16.28999089631971 0.0 0.0 0.0 16.28999089631971 0.0 0.0 0.0 34.56409401068381" Properties=species:S:1:pos:R:3:initial_magmoms:R:1 pbc="T T T"
Si       1.35736425       1.35786924      -1.35622668       0.00000000
Si       1.35707103      -1.35752715       1.35743642       0.00000000
Si      -1.35736425       1.35780408       1.35743642       0.00000000
Si      -1.35798327      -1.35811359      -1.35719447       0.00000000
Si      -0.00133578      -2.71097366      -2.71822556       0.00000000
Si       2.71435383       2.71502172       0.00041477       0.00000000
Si      -2.71490769       2.71456560       0.00000000       0.00000000
Si       0.00307881       2.71453302      -2.71497654       0.00000000
Si      -2.71419093       0.00232947      -2.71549500       0.00000000
Si       0.00237834       2.71538010       2.71435438       0.00000000
