10
Lattice="16.28999089631971 0.0 0.0 0.0 16.28999089631971 0.0 0.0 0.0 34.56409401068381" Properties=species:S:1:pos:R:3:initial_magmoms:R:1 pbc="T T T"
Si       1.26364788       1.87276356      -0.85667155       0.00000000
Si      -2.32120187       0.70628553       0.01292698       0.00000000
Si       0.16333983      -1.42614063      -1.95753856       0.00000000
Si       1.53745020      -1.91965921       1.60719671       0.00000000
Si       0.54105606      -0.21395286       3.17827391       0.00000000
Si       1.83560607      -2.75683326      -1.05095643       0.00000000
Si      -1.37003135       1.50566841       2.99681232       0.00000000
Si      -2.27029562       2.04385743      -2.11629153       0.00000000
Si       0.10176363       3.65407506       0.98538831       0.00000000
Si      -0.28759669       3.30364458      -2.01947745       0.00000000
