10
Lattice="16.28999089631971 0.0 0.0 0.0 16.28999089631971 0.0 0.0 0.0 34.56409401068381" Properties=species:S:1:pos:R:3:initial_magmoms:R:1 pbc="T T T"
Si       1.32463764      -1.28814804      -1.39421264       0.00000000
Si       1.39966938       1.38539934       1.38111284       0.00000000
Si      -1.40129838       1.42096041      -1.36096196       0.00000000
Si      -1.03922055      -1.73972313       1.34316144       0.00000000
Si      -0.32122251       2.35854765       2.62006348       0.00000000
Si      -2.27677185       0.98425809       2.71103623       0.00000000
Si       2.71042794      -2.50642827       0.04213365       0.00000000
Si      -0.04382010      -2.65843026      -2.73433244       0.00000000
Si       2.66502771       0.06213006      -2.73989726       0.00000000
Si       0.78403770      -3.46287933       1.44892763       0.00000000
