10
Lattice="16.28999089631971 0.0 0.0 0.0 16.28999089631971 0.0 0.0 0.0 34.56409401068381" Properties=species:S:1:pos:R:3:initial_magmoms:R:1 pbc="T T T"
Si       0.23648193      -1.58332284       1.71282464       0.00000000
Si       1.82311164      -0.76867623      -1.32698544       0.00000000
Si       0.55961037       2.29483746       0.47501461       0.00000000
Si      -2.24153658      -0.85581144      -0.32549026       0.00000000
Si       1.23461910      -3.01493691      -1.59565229       0.00000000
Si      -3.41558946       0.51978132       1.22820120       0.00000000
Si       2.19965499       1.95113475       2.20843946       0.00000000
Si       2.09813571      -0.26784018       3.11944579       0.00000000
Si       0.90520272      -3.65488956       0.71063817       0.00000000
Si       1.02333780       3.48579936      -1.57418798       0.00000000
