10
Lattice="16.28999089631971 0.0 0.0 0.0 16.28999089631971 0.0 0.0 0.0 34.56409401068381" Properties=species:S:1:pos:R:3:initial_magmoms:R:1 pbc="T T T"
Si      -1.08476739       2.05219791       0.44069244       0.00000000
Si       2.27357901       0.57581892      -0.53726458       0.00000000
Si      -1.26428319      -0.83574216      -1.87302930       0.00000000
Si      -0.70944579      -1.41356475       2.00589375       0.00000000
Si       0.33870168      -2.42057997      -2.61166440       0.00000000
Si       0.57314736       1.20032865       3.58021999       0.00000000
Si      -1.10713356      -3.58295292       0.88256007       0.00000000
Si       2.35708155       2.01207564      -2.44703553       0.00000000
Si      -0.60422868       3.84061185      -1.03630125       0.00000000
Si       3.66381648      -1.16747172      -1.34195170       0.00000000
