10
Lattice="16.28999089631971 0.0 0.0 0.0 16.28999089631971 0.0 0.0 0.0 34.56409401068381" Properties=species:S:1:pos:R:3:initial_magmoms:R:1 pbc="T T T"
Si       0.67023576       1.75966209       1.53569880       0.00000000
Si      -1.90586484      -0.71325765       1.41338678       0.00000000
Si       1.65701880      -2.02051386       0.20026447       0.00000000
Si       1.36953288       2.17456839      -1.76612250       0.00000000
Si      -1.28259315      -2.61389340      -1.57432623       0.00000000
Si       2.48523498       2.65437405       0.30231596       0.00000000
Si      -1.65791475       0.85186926      -3.13952754       0.00000000
Si       2.00842668       0.56216790       3.00245460       0.00000000
Si       3.22540371      -0.83136015       1.55076184       0.00000000
Si      -0.71487036      -2.15106192       2.96562308       0.00000000
