10
Lattice="16.28999089631971 0.0 0.0 0.0 16.28999089631971 0.0 0.0 0.0 34.56409401068381" Properties=species:S:1:pos:R:3:initial_magmoms:R:1 pbc="T T T"
Si       1.35695700      -1.35975888       1.36524791       0.00000000
Si      -1.35944937       1.35861858       1.36590463       0.00000000
Si       1.36982610       1.34602641      -1.36891516       0.00000000
Si      -1.35672894      -1.37743353      -1.37806429       0.00000000
Si      -2.70925506       2.71083519       0.00815713       0.00000000
Si      -2.71168227      -2.71629234       0.00746585       0.00000000
Si       2.71608057       2.71259451       0.00525375       0.00000000
Si       2.71477737      -2.71402803       0.00794975       0.00000000
Si       0.02143764       2.64722274      -2.78751624       0.00000000
Si       2.71463076       0.00000000       2.72251151       0.00000000
