10
Lattice="16.28999089631971 0.0 0.0 0.0 16.28999089631971 0.0 0.0 0.0 34.56409401068381" Properties=species:S:1:pos:R:3:initial_magmoms:R:1 pbc="T T T"
Si       1.35729347       1.35734796       1.35854247       0.00000000
Si      -1.35787227      -1.35759231       1.35861160       0.00000000
Si       1.35868952      -1.35941679      -1.35850791       0.00000000
Si      -1.36075560       1.36155078      -1.35899181       0.00000000
Si       2.71439057      -2.71510317       0.00235036       0.00000000
Si       2.71406477       0.00024435       2.71604803       0.00000000
Si      -0.00025255       2.71474479       2.71608259       0.00000000
Si      -2.71526910       0.00016290       2.71556413       0.00000000
Si      -0.00042505      -2.71515204       2.71577151       0.00000000
Si      -2.71582296      -2.71518462       0.00210841       0.00000000
