10
Lattice="16.28999089631971 0.0 0.0 0.0 16.28999089631971 0.0 0.0 0.0 34.56409401068381" Properties=species:S:1:pos:R:3:initial_magmoms:R:1 pbc="T T T"
Si       0.42582060      -0.56607750      -2.22623998       0.00000000
Si       1.05251319       1.89633912       0.89680048       0.00000000
Si      -1.93828194       1.20394407      -0.57628746       0.00000000
Si      -0.96308109      -2.01857535       0.81612784       0.00000000
Si       2.56745061      -1.13059116       1.83950211       0.00000000
Si      -2.50786179      -2.06122257      -1.03108206       0.00000000
Si       2.75097375      -1.56656043      -1.66319057       0.00000000
Si       1.76787225       3.10967045      -1.05769643       0.00000000
Si      -2.61289971       2.46424110       1.23452644       0.00000000
Si      -0.58829706       2.93098544       2.35298658       0.00000000
