10
Lattice="16.28999089631971 0.0 0.0 0.0 16.28999089631971 0.0 0.0 0.0 34.56409401068381" Properties=species:S:1:pos:R:3:initial_magmoms:R:1 pbc="T T T"
Si      -0.42582060       0.56607750       2.22623998       0.00000000
Si       1.04109390       1.76181304      -1.21482489       0.00000000
Si       2.32515315      -1.00048293       0.56304941       0.00000000
Si      -2.08207377      -1.06512165      -1.12523471       0.00000000
Si       1.96877682      -1.87582608      -1.59720768       0.00000000
Si       1.40090742       0.08700489      -2.95657969       0.00000000
Si      -2.36410254       1.77002157       1.64995251       0.00000000
Si      -2.93368239      -1.49514507       1.19515791       0.00000000
Si       0.13849758      -3.42158418      -1.21351145       0.00000000
Si      -1.38890169      -1.45249785       3.04236782       0.00000000
