10
Lattice="16.28999089631971 0.0 0.0 0.0 16.28999089631971 0.0 0.0 0.0 34.56409401068381" Properties=species:S:1:pos:R:3:initial_magmoms:R:1 pbc="T T T"
Si       1.34687349      -1.35025186       1.39183463       0.00000000
Si       1.18460880       1.51126728      -1.41340406       0.00000000
Si      -1.37125962       1.37228100       1.38772150       0.00000000
Si      -1.61508834      -1.10838137      -1.51108224       0.00000000
Si       2.07671436      -0.34662839      -2.69182692       0.00000000
Si      -2.81606859       2.57694279      -0.07812181       0.00000000
Si      -3.58730235       0.46041567      -1.23379437       0.00000000
Si       2.75151132      -2.66531671      -0.02656598       0.00000000
Si      -0.01503567      -2.70068230       2.75625300       0.00000000
Si       2.70060507       0.01687318       2.75777382       0.00000000
