10
Lattice="16.28999089631971 0.0 0.0 0.0 16.28999089631971 0.0 0.0 0.0 34.56409401068381" Properties=species:S:1:pos:R:3:initial_magmoms:R:1 pbc="T T T"
Si       1.35032697       1.34916875      -1.36701414       0.00000000
Si       1.35570267      -1.35746319       1.35840422       0.00000000
Si      -1.36001952       1.35713456       1.35957940       0.00000000
Si      -1.35373158      -1.36712504      -1.36593919       0.00000000
Si       2.71449297       2.71290239      -0.00103692       0.00000000
Si       2.71162430      -2.71635003       0.00006913       0.00000000
Si       2.71299591       0.00035838       2.71594433       0.00000000
Si      -0.00206883       2.71472687       2.71608259       0.00000000
Si      -0.00185706      -2.71507941       2.71584064       0.00000000
Si      -2.71661814       0.00007493       2.71611715       0.00000000
