10
Lattice="16.28999089631971 0.0 0.0 0.0 16.28999089631971 0.0 0.0 0.0 34.56409401068381" Properties=species:S:1:pos:R:3:initial_magmoms:R:1 pbc="T T T"
Si      -1.35570267       1.35746319      -1.35840422       0.00000000
Si      -1.35755973      -1.35761621       1.35743642       0.00000000
Si       1.35729324       1.35782157       1.35754012       0.00000000
Si       1.35592163      -1.35888683      -1.35833509       0.00000000
Si      -0.00042445      -2.70926267      -2.71495926       0.00000000
Si       2.71374200      -2.71450805       0.00034564       0.00000000
Si       2.71449134       2.71467920       0.00141713       0.00000000
Si       2.71454021       0.00024198       2.71466546       0.00000000
Si      -0.00032428       2.71463033       2.71483828       0.00000000
Si      -2.71445157      -2.71515965       0.00062215       0.00000000
