10
Lattice="16.28999089631971 0.0 0.0 0.0 16.28999089631971 0.0 0.0 0.0 34.56409401068381" Properties=species:S:1:pos:R:3:initial_magmoms:R:1 pbc="T T T"
Si       1.36708938       1.35128808       1.34174432       0.00000000
Si       1.35500220      -1.35787250      -1.35740186       0.00000000
Si      -1.35899325       1.35843939      -1.35695253       0.00000000
Si      -1.37510406      -1.35386516       1.37413089       0.00000000
Si      -0.05478327       2.61364905       2.68407622       0.00000000
Si       2.70467757      -0.02018331       2.69596628       0.00000000
Si       2.71191809       2.71428867      -0.00311077       0.00000000
Si       2.71331279      -0.00003258      -2.71514936       0.00000000
Si      -2.71852407      -2.71016577       0.00013826       0.00000000
Si      -0.00154755      -2.71437800      -2.71535674       0.00000000
