10
Lattice="16.28999089631971 0.0 0.0 0.0 16.28999089631971 0.0 0.0 0.0 34.56409401068381" Properties=species:S:1:pos:R:3:initial_magmoms:R:1 pbc="T T T"
Si       0.92760147       1.76481657       1.23221064       0.00000000
Si       1.33030656      -1.38018688      -1.37091643       0.00000000
Si      -1.19088045      -1.46580712       1.43921511       0.00000000
Si      -1.40869404       1.34363536      -1.37375068       0.00000000
Si      -1.55069397       0.20900103       3.18096991       0.00000000
Si       2.67108759       2.67731721      -0.05191530       0.00000000
Si      -2.69900865      -2.68071532       0.00214298       0.00000000
Si       2.58807375      -2.78412424       0.16493995       0.00000000
Si       2.68210144      -0.01731216      -2.74881480       0.00000000
Si      -0.03358998       2.69750052      -2.74788157       0.00000000
