10
Lattice="16.28999089631971 0.0 0.0 0.0 16.28999089631971 0.0 0.0 0.0 34.56409401068381" Properties=species:S:1:pos:R:3:initial_magmoms:R:1 pbc="T T T"
Si       0.24772203      -1.27559985      -1.96026912       0.00000000
Si      -2.11945932       1.04596461      -0.32061672       0.00000000
Si       0.15353325      -1.24356720       2.03530781       0.00000000
Si       1.58607585       1.82156409       0.18433042       0.00000000
Si      -0.73857231       0.61432848       3.31373067       0.00000000
Si      -2.08876896       2.06946531       1.90493198       0.00000000
Si      -3.38462217      -0.83727342      -1.13494723       0.00000000
Si       2.46275708      -2.00323506      -1.89577249       0.00000000
Si       1.30398192      -3.28164398       1.26003475       0.00000000
Si       0.37641303       0.15532515      -3.87304715       0.00000000
