10
Lattice="16.28999089631971 0.0 0.0 0.0 16.28999089631971 0.0 0.0 0.0 34.56409401068381" Properties=species:S:1:pos:R:3:initial_magmoms:R:1 pbc="T T T"
Si      -1.58607585      -1.82156409      -0.18433042       0.00000000
Si       2.32120187      -0.70628553      -0.01292698       0.00000000
Si       0.05090625       1.33757190      -2.12921851       0.00000000
Si       0.95117051       0.79938288       2.98388534       0.00000000
Si      -3.70553517      -0.77559948      -0.50494713       0.00000000
Si       2.48454170      -2.13242616      -1.97046554       0.00000000
Si      -1.43254260      -3.06513129       1.85097740       0.00000000
Si       3.58484975       1.16647803      -0.86959853       0.00000000
Si       2.03360517       2.59735905      -2.03240443       0.00000000
Si       2.42296550       2.94778953       0.97246133       0.00000000
