10
Lattice="16.28999089631971 0.0 0.0 0.0 16.28999089631971 0.0 0.0 0.0 34.56409401068381" Properties=species:S:1:pos:R:3:initial_magmoms:R:1 pbc="T T T"
Si       0.88616853       1.96779942       0.84533452       0.00000000
Si       1.68544063      -0.94734495      -1.35204442       0.00000000
Si      -1.02688902       1.58926869      -1.44246414       0.00000000
Si      -0.16744491      -2.13296373       1.22318941       0.00000000
Si       2.38629671      -2.59929756       0.16573492       0.00000000
Si       0.25299999      -2.29061835      -2.76924220       0.00000000
Si      -3.16151433      -1.42280118      -1.30400030       0.00000000
Si      -2.62133793       2.68037289      -0.12785266       0.00000000
Si      -2.50646085       0.34321401      -2.78113225       0.00000000
Si       1.71742605       1.66847067       2.93176266       0.00000000
