10
Lattice="16.28999089631971 0.0 0.0 0.0 16.28999089631971 0.0 0.0 0.0 34.56409401068381" Properties=species:S:1:pos:R:3:initial_magmoms:R:1 pbc="T T T"
Si       1.95587514      -0.91772973       0.85076109       0.00000000
Si      -1.46489454      -1.76712291      -0.44694855       0.00000000
Si      -0.86485239       1.26519543       1.80645882       0.00000000
Si       0.71941527       0.58264443      -2.25672552       0.00000000
Si       0.06543693      -2.91187008      -1.83549267       0.00000000
Si      -0.13352913       3.31366293       0.99548103       0.00000000
Si       2.04879330      -2.83864653      -0.51265493       0.00000000
Si      -1.65672558      -2.59620246       1.78637707       0.00000000
Si       3.36399156       0.97725339       0.79711758       0.00000000
Si      -0.81806751       2.20276638      -2.94306512       0.00000000
