10
Lattice="16.28999089631971 0.0 0.0 0.0 16.28999089631971 0.0 0.0 0.0 34.56409401068381" Properties=species:S:1:pos:R:3:initial_magmoms:R:1 pbc="T T T"
Si       1.35014778       1.36195803       1.37516436       0.00000000
Si      -1.36215351      -1.35466011       1.37284856       0.00000000
Si      -1.36270737       1.27112499      -1.47755363       0.00000000
Si       1.27293318      -1.40566410      -1.48279009       0.00000000
Si       2.01521961       0.60316983      -2.39892159       0.00000000
Si      -2.24165061      -0.63395793      -2.67681824       0.00000000
Si       0.44422830       2.32072227      -2.73884448       0.00000000
Si      -0.58440375      -2.38194009      -2.84236400       0.00000000
Si      -2.70710478       2.70539433      -0.00401635       0.00000000
Si       2.70423160      -2.71832859      -0.01424041       0.00000000
