10
Lattice="16.28999089631971 0.0 0.0 0.0 16.28999089631971 0.0 0.0 0.0 34.56409401068381" Properties=species:S:1:pos:R:3:initial_magmoms:R:1 pbc="T T T"
Si       0.74228643       2.00883393      -0.91613150       0.00000000
Si      -1.27293318       1.40566410       1.48279009       0.00000000
Si       1.43129842      -1.31266449       1.46854968       0.00000000
Si      -1.85733693      -0.97627599      -1.35957391       0.00000000
Si      -2.63564055       2.67678909       0.00523646       0.00000000
Si      -3.51458379       0.77170617      -1.19402815       0.00000000
Si      -2.77441506      -2.71402803       0.05441774       0.00000000
Si      -2.63508669       0.05100399       2.85563865       0.00000000
Si       2.74363415       2.75792958       0.10363704       0.00000000
Si       2.69875845      -2.80396512       0.05461821       0.00000000
