10
Lattice="16.28999089631971 0.0 0.0 0.0 16.28999089631971 0.0 0.0 0.0 34.56409401068381" Properties=species:S:1:pos:R:3:initial_magmoms:R:1 pbc="T T T"
Si       1.34594496      -1.38411243       1.30638523       0.00000000
Si      -1.34221455      -1.35656604      -1.35041991       0.00000000
Si      -1.40348124       1.29904605       1.34858801       0.00000000
Si       1.37199852       1.35817875      -1.34599570       0.00000000
Si       2.71251210       0.06226038       2.55660377       0.00000000
Si      -2.70255987       0.00169416      -2.70640464       0.00000000
Si       0.01353699      -2.71334385      -2.70723418       0.00000000
Si      -0.14564889       2.46518199       2.93162440       0.00000000
Si      -2.71313208      -2.71036278       0.01814616       0.00000000
Si       0.01352070       2.71797021      -2.70616269       0.00000000
