10
Lattice="16.28999089631971 0.0 0.0 0.0 16.28999089631971 0.0 0.0 0.0 34.56409401068381" Properties=species:S:1:pos:R:3:initial_magmoms:R:1 pbc="T T T"
Si      -1.25783235      -1.16613594      -1.58303639       0.00000000
Si       1.29901347      -1.59526341       1.17984601       0.00000000
Si      -1.78652430       0.91289160       1.26601434       0.00000000
Si       1.42456050       1.55740545      -1.36763284       0.00000000
Si      -2.48702688      -2.47634064       0.01534647       0.00000000
Si      -2.35439370       2.87572257      -0.09335767       0.00000000
Si       2.85816099      -2.40292161      -0.37502063       0.00000000
Si       0.14564889      -2.46518199      -2.93162440       0.00000000
Si      -2.56028301       0.25831053      -2.92495353       0.00000000
Si       3.28758983      -0.55977327       2.11542743       0.00000000
