10
Lattice="16.28999089631971 0.0 0.0 0.0 16.28999089631971 0.0 0.0 0.0 34.56409401068381" Properties=species:S:1:pos:R:3:initial_magmoms:R:1 pbc="T T T"
Si       1.25783235       1.16613594       1.58303639       0.00000000
Si       1.40348124      -1.29904605      -1.34858801       0.00000000
Si      -1.30245066       1.42444647      -1.34191714       0.00000000
Si      -1.22919453      -1.31020470       1.59838286       0.00000000
Si      -0.52869195       2.07902754       2.84905073       0.00000000
Si      -2.63635731      -2.57597028       0.06719264       0.00000000
Si       0.06126669      -2.65561209      -2.69900792       0.00000000
Si      -2.65821849       0.06069654      -2.69703776       0.00000000
Si       2.55684582      -0.42912747       2.76288240       0.00000000
Si       2.68239285       2.72354139       0.21540355       0.00000000
