10
Lattice="16.28999089631971 0.0 0.0 0.0 16.28999089631971 0.0 0.0 0.0 34.56409401068381" Properties=species:S:1:pos:R:3:initial_magmoms:R:1 pbc="T T T"
Si       1.35550719      -1.34814411      -1.34945211       0.00000000
Si      -1.29780312      -1.38096846       1.39970833       0.00000000
Si      -1.36311136       1.36283769      -1.36137673       0.00000000
Si       1.35892809       1.46236959       1.29878112       0.00000000
Si      -0.30617055       2.61084717       2.51049524       0.00000000
Si      -0.00503361      -2.70529659      -2.71027582       0.00000000
Si       2.68871337      -2.72675052       0.06283756       0.00000000
Si       2.70682785       0.01179396      -2.71062146       0.00000000
Si      -0.00605988       2.72442105      -2.71266074       0.00000000
Si      -2.72300324       0.01023012      -2.71656649       0.00000000
