10
Lattice="16.28999089631971 0.0 0.0 0.0 16.28999089631971 0.0 0.0 0.0 34.56409401068381" Properties=species:S:1:pos:R:3:initial_magmoms:R:1 pbc="T T T"
Si       1.35410625      -1.35493704      -1.35553540       0.00000000
Si       1.35689184       1.35754344       1.35681427       0.00000000
Si      -1.35689184       1.35506736      -1.36054719       0.00000000
Si      -1.35834165      -1.35752715       1.35671058       0.00000000
Si       2.71267092      -2.71448415      -0.00041477       0.00000000
Si       2.71439996      -0.00001629       2.71438895       0.00000000
Si      -0.00096111      -2.71482624       2.71428526       0.00000000
Si      -0.00073305       2.71544456       2.71400874       0.00000000
Si       2.71445157       2.71515965      -0.00062215       0.00000000
Si       2.71402712       0.00589698      -2.71558141       0.00000000
