10
Lattice="16.28999089631971 0.0 0.0 0.0 16.28999089631971 0.0 0.0 0.0 34.56409401068381" Properties=species:S:1:pos:R:3:initial_magmoms:R:1 pbc="T T T"
Si       0.35637633       0.87534315       2.16025708       0.00000000
Si       1.78652430      -0.91289160      -1.26601434       0.00000000
Si      -1.83027924      -1.54575810       0.38369622       0.00000000
Si      -0.56786940       1.96283097      -1.35937201       0.00000000
Si      -1.96877682       1.87582608       1.59720768       0.00000000
Si      -3.23301114      -0.66725469      -1.25049506       0.00000000
Si      -2.07599760       0.74792277      -2.79644415       0.00000000
Si       0.52869195      -2.07902754      -2.84905073       0.00000000
Si      -0.70050258      -3.38923224      -1.25066788       0.00000000
Si      -0.92768292       3.63763912       0.38238279       0.00000000
