10
Lattice="16.28999089631971 0.0 0.0 0.0 16.28999089631971 0.0 0.0 0.0 34.56409401068381" Properties=species:S:1:pos:R:3:initial_magmoms:R:1 pbc="T T T"
Si      -2.07627453       0.76725967       0.86952940       0.00000000
Si       1.56673052       1.71420389      -0.60117362       0.00000000
Si       1.00159458      -1.35231435       1.72526772       0.00000000
Si      -0.70916886      -0.69496398      -2.24549219       0.00000000
Si      -2.51737515      -1.95046686       0.56211618       0.00000000
Si      -0.80151687      -2.83134861       1.90351485       0.00000000
Si      -1.44736650       3.08362274       1.12931327       0.00000000
Si       3.01727357      -2.17028412       0.85857258       0.00000000
Si       3.41939222       0.63180669      -1.62579220       0.00000000
Si      -2.24282349       0.25245625       3.16628017       0.00000000
