10
Lattice="16.28999089631971 0.0 0.0 0.0 16.28999089631971 0.0 0.0 0.0 34.56409401068381" Properties=species:S:1:pos:R:3:initial_magmoms:R:1 pbc="T T T"
Si      -0.83125752       0.29932875      -2.08642814       0.00000000
Si       0.81629516      -2.10447252       0.42268454       0.00000000
Si      -1.19709346       1.03824315       1.72364320       0.00000000
Si       1.93162259       1.35711990      -0.21996602       0.00000000
Si      -1.27898817      -3.18094830       0.53142324       0.00000000
Si       0.95964716       1.37600001      -3.17302017       0.00000000
Si       0.51545144       2.09479626       2.91344368       0.00000000
Si      -2.64188355       1.86056235      -1.66965406       0.00000000
Si       1.55182124      -1.99174572       2.68373058       0.00000000
Si      -2.91247674       2.26786122       0.64883754       0.00000000
