10
Lattice="16.28999089631971 0.0 0.0 0.0 16.28999089631971 0.0 0.0 0.0 34.56409401068381" Properties=species:S:1:pos:R:3:initial_magmoms:R:1 pbc="T T T"
Si      -1.34907101      -1.34433225       1.37672665       0.00000000
Si       1.36414089       1.37117817       1.37289004       0.00000000
Si      -1.40085855       1.36014984      -1.37486019       0.00000000
Si       1.25237520      -1.51034364      -1.36162905       0.00000000
Si      -2.71319428      -2.71044423      -0.00994755       0.00000000
Si      -2.70735723       2.73067641       0.01941121       0.00000000
Si       0.00882918      -2.70482418       2.73399026       0.00000000
Si      -2.70871343       0.01029528       2.73457785       0.00000000
Si       2.72689713       2.71914309      -0.00363269       0.00000000
Si       2.72386719       0.00959481       2.73426677       0.00000000
