10
Lattice="16.28999089631971 0.0 0.0 0.0 16.28999089631971 0.0 0.0 0.0 34.56409401068381" Properties=species:S:1:pos:R:3:initial_magmoms:R:1 pbc="T T T"
Si       1.35611041      -1.35546277      -1.35722904       0.00000000
Si       1.36329593       1.33411464       1.37309397       0.00000000
Si      -1.36068922       1.35694018      -1.35646863       0.00000000
Si      -1.35179488      -1.36287472       1.37789838       0.00000000
Si      -0.01101385       2.69462937       2.69689951       0.00000000
Si       2.71248586       0.00039175      -2.71438895       0.00000000
Si       2.71419631       2.71357464       0.00411313       0.00000000
Si      -0.00237863       2.71478010      -2.71421613       0.00000000
Si      -0.00210596      -2.71502617      -2.71404331       0.00000000
Si       2.71323520      -2.71678549       0.00155539       0.00000000
