10
Lattice="16.28999089631971 0.0 0.0 0.0 16.28999089631971 0.0 0.0 0.0 34.56409401068381" Properties=species:S:1:pos:R:3:initial_magmoms:R:1 pbc="T T T"
Si      -1.35675648      -1.35708732       1.35712535       0.00000000
Si       1.35964242      -1.35462753      -1.35785119       0.00000000
Si       1.35843696       1.35751086       1.35695253       0.00000000
Si      -1.35856467       1.35954711      -1.35512063       0.00000000
Si      -2.71267092       2.71448415       0.00041477       0.00000000
Si      -2.71363203      -0.00034209       2.71470002       0.00000000
Si       0.00172904       2.71446786       2.71480372       0.00000000
Si      -2.71460943      -2.71555929       0.00107149       0.00000000
Si       2.71552265       2.71513575       0.00013826       0.00000000
Si       0.00162887      -2.71581993       2.71494197       0.00000000
