10
Lattice="16.28999089631971 0.0 0.0 0.0 16.28999089631971 0.0 0.0 0.0 34.56409401068381" Properties=species:S:1:pos:R:3:initial_magmoms:R:1 pbc="T T T"
Si       1.35414046       1.34773686      -1.38439643       0.00000000
Si      -1.36003552      -1.36669842      -1.38218433       0.00000000
Si       1.51822963      -1.29059154       1.35712535       0.00000000
Si      -1.45312243       1.29771027       1.52780294       0.00000000
Si      -0.01952194      -2.66261679       2.52041514       0.00000000
Si      -2.71088962       2.70164763      -0.00805344       0.00000000
Si       2.72004067       2.69946477       0.00691282       0.00000000
Si      -0.00298433       2.70905958      -2.74318085       0.00000000
Si       2.72673586      -2.72797227      -0.03207550       0.00000000
Si       2.71160245      -0.00685809      -2.74331911       0.00000000
