10
Lattice="16.28999089631971 0.0 0.0 0.0 16.28999089631971 0.0 0.0 0.0 34.56409401068381" Properties=species:S:1:pos:R:3:initial_magmoms:R:1 pbc="T T T"
Si      -1.37430978       1.36051474       1.32380554       0.00000000
Si      -1.36329593      -1.33411464      -1.37309397       0.00000000
Si       1.35090038       1.37946001      -1.36898084       0.00000000
Si       1.26013250      -1.47051526       1.47713195       0.00000000
Si      -2.71509081      -2.69698936       0.00480441       0.00000000
Si       2.71583948      -2.69917222       0.01977067       0.00000000
Si      -0.00718552      -2.68957741      -2.73032300       0.00000000
Si       2.70699401       0.02239061      -2.73101429       0.00000000
Si      -2.71189797       2.73198613      -0.03041642       0.00000000
Si       0.05813087       2.70378814       2.74100332       0.00000000
