10
Lattice="16.28999089631971 0.0 0.0 0.0 16.28999089631971 0.0 0.0 0.0 34.56409401068381" Properties=species:S:1:pos:R:3:initial_magmoms:R:1 pbc="T T T"
Si      -2.20058841      -0.37364373      -0.61413517       0.00000000
Si       0.00902466      -1.79001036       1.57484470       0.00000000
Si       0.25177824       1.99322715       1.31326349       0.00000000
Si       0.08951355      -1.27309608      -2.18752817       0.00000000
Si      -1.97390328      -2.50633053       0.46274435       0.00000000
Si      -1.42929763       0.15908814      -3.36308823       0.00000000
Si      -0.78372819      -3.37302369      -1.31236482       0.00000000
Si       1.06824933       1.14197787       3.35983920       0.00000000
Si       2.06607699       3.16148894       0.35611406       0.00000000
Si      -0.15034041      -0.80886366       3.79762826       0.00000000
