10
Lattice="16.28999089631971 0.0 0.0 0.0 16.28999089631971 0.0 0.0 0.0 34.46413024517268" Properties=species:S:1:pos:R:3:initial_magmoms:R:1 pbc="T T T"
Si      -1.35441576      -1.34849484       1.36971559       0.00000000
Si      -1.29238344       1.35790037      -1.44364119       0.00000000
Si       1.36418976       1.36673444       1.37050826       0.00000000
Si       1.24370892      -1.50657300      -1.41299567       0.00000000
Si       0.29224260       2.37685616      -2.91922517       0.00000000
Si      -2.69518050       2.71386368       0.00145094       0.00000000
Si      -2.72345994      -2.69548236      -0.01403380       0.00000000
Si       2.70062136      -2.72679174       0.00304663       0.00000000
Si       2.71446786       2.71370078      -0.00009650       0.00000000
Si       0.00267156      -2.70761841       2.72860254       0.00000000
