10
Lattice="16.28999089631971 0.0 0.0 0.0 16.28999089631971 0.0 0.0 0.0 34.46413024517268" Properties=species:S:1:pos:R:3:initial_magmoms:R:1 pbc="T T T"
Si      -1.35863487       1.35390230      -1.36316051       0.00000000
Si       1.35773892      -1.36170653      -1.36329836       0.00000000
Si      -1.37696112      -1.34266352       1.37860044       0.00000000
Si       1.34555400       1.35991820       1.39397146       0.00000000
Si       2.58693345      -0.18434678       2.79159611       0.00000000
Si      -2.71549413       2.71135452      -0.00534194       0.00000000
Si       2.71324611       2.71611120       0.00062035       0.00000000
Si      -2.71682991      -2.71543811      -0.00210231       0.00000000
Si      -0.00032580       2.71293465      -2.71991068       0.00000000
Si       2.71502172      -0.00245652      -2.72059996       0.00000000
