10
Lattice="16.28999089631971 0.0 0.0 0.0 16.28999089631971 0.0 0.0 0.0 34.46413024517268" Properties=species:S:1:pos:R:3:initial_magmoms:R:1 pbc="T T T"
Si      -1.34555400      -1.35991820      -1.39397146       0.00000000
Si       1.36769211       1.35619300      -1.39335110       0.00000000
Si       1.24137945      -1.54426498       1.39762465       0.00000000
Si      -1.40353011       1.43695882       1.58993461       0.00000000
Si      -2.68579746       2.71277533      -0.02801935       0.00000000
Si      -2.72251512      -2.70258172      -0.01537101       0.00000000
Si       2.72790711       2.72163709      -0.00589337       0.00000000
Si       2.71498914      -2.74610860      -0.02553793       0.00000000
Si      -2.70418887      -0.00601590      -2.75713196       0.00000000
Si       0.01128897       2.71034812      -2.75651161       0.00000000
