10
Lattice="16.28999089631971 0.0 0.0 0.0 16.28999089631971 0.0 0.0 0.0 34.46413024517268" Properties=species:S:1:pos:R:3:initial_magmoms:R:1 pbc="T T T"
Si       1.99317924      -1.29842377       0.19272352       0.00000000
Si       0.72301536       2.30022945       0.23983602       0.00000000
Si      -1.38230424      -0.06294456       2.08290980       0.00000000
Si      -0.32400810      -0.56278692      -2.49613496       0.00000000
Si       0.94359825      -2.95820603      -1.28644331       0.00000000
Si       1.97428284      -1.73494039       2.50006387       0.00000000
Si       0.33286986      -0.53188479       3.67463655       0.00000000
Si      -2.22827000       1.18369656      -2.82361330       0.00000000
Si      -0.96702327       3.61040157      -0.87566511       0.00000000
Si      -3.21610212      -1.58222652       1.79820146       0.00000000
