10
Lattice="16.28999089631971 0.0 0.0 0.0 16.28999089631971 0.0 0.0 0.0 34.46413024517268" Properties=species:S:1:pos:R:3:initial_magmoms:R:1 pbc="T T T"
Si       1.71517410      -0.46894023       1.59172674       0.00000000
Si      -1.83379788      -1.51928196      -0.28470834       0.00000000
Si      -1.03170760       2.13977295       0.42780349       0.00000000
Si       1.38230424       0.06294456      -2.08290980       0.00000000
Si       2.10531960       2.36317401      -1.84307379       0.00000000
Si      -1.80345613       1.81543905       2.63140674       0.00000000
Si       2.34279522       1.70069229       2.28380133       0.00000000
Si      -3.30071957      -0.43528509      -1.74784934       0.00000000
Si       3.35658708      -1.67199583       0.41715407       0.00000000
Si      -2.51203922      -2.09600498       2.00788135       0.00000000
