10
Lattice="16.28999089631971 0.0 0.0 0.0 16.28999089631971 0.0 0.0 0.0 34.46413024517268" Properties=species:S:1:pos:R:3:initial_magmoms:R:1 pbc="T T T"
Si      -1.46692169       1.08399687      -1.46314100       0.00000000
Si       1.83379788       1.51928196       0.28470834       0.00000000
Si      -0.67824134      -0.57672302       2.29258969       0.00000000
Si       0.29979953      -1.88781130      -1.73220262       0.00000000
Si       0.80209028       3.65905491       0.71251183       0.00000000
Si      -1.23138458       1.39464717       3.53123122       0.00000000
Si       1.10861595      -1.72145782       3.43531749       0.00000000
Si       3.21610212       1.58222652      -1.79820146       0.00000000
Si      -3.09357593      -0.07246606      -2.58363943       0.00000000
Si      -1.35484649      -3.56582791      -1.42585079       0.00000000
