10
Lattice="16.28999089631971 0.0 0.0 0.0 16.28999089631971 0.0 0.0 0.0 34.46413024517268" Properties=species:S:1:pos:R:3:initial_magmoms:R:1 pbc="T T T"
Si      -1.35674523       1.35536058       1.35757731       0.00000000
Si      -1.35716877      -1.35733167      -1.35737053       0.00000000
Si       1.35827649       1.35757602      -1.35761178       0.00000000
Si       1.35640314      -1.35415512       1.36316051       0.00000000
Si      -2.69708643       0.00242721       2.72849225       0.00000000
Si      -2.71285515       2.71552671      -0.00124071       0.00000000
Si      -2.71391400      -0.00050499      -2.71529248       0.00000000
Si       2.71538010       2.71494027      -0.00003446       0.00000000
Si       0.00097740       2.71494027      -2.71539588       0.00000000
Si       0.00070047      -2.71522046      -2.71563712       0.00000000
