10
Lattice="16.28999089631971 0.0 0.0 0.0 16.28999089631971 0.0 0.0 0.0 34.46413024517268" Properties=species:S:1:pos:R:3:initial_magmoms:R:1 pbc="T T T"
Si      -0.50054283       1.61099955       1.72179445       0.00000000
Si       1.24590807       1.51122330      -1.56939398       0.00000000
Si      -1.62292383      -1.29414276      -1.51028796       0.00000000
Si       0.81381582      -1.59762546       1.93030255       0.00000000
Si       2.48552820       1.92855681       1.67137339       0.00000000
Si      -2.49725700       0.75689856       2.65859896       0.00000000
Si       2.10097017       3.29836662      -0.23290872       0.00000000
Si      -1.40789583       3.63576510       0.75411006       0.00000000
Si       2.50851339      -0.00946449      -3.10611594       0.00000000
Si      -1.22709312      -2.84175466       2.61148646       0.00000000
