10
Lattice="16.28999089631971 0.0 0.0 0.0 16.28999089631971 0.0 0.0 0.0 34.46413024517268" Properties=species:S:1:pos:R:3:initial_magmoms:R:1 pbc="T T T"
Si       1.42781850      -0.51227163      -1.79854611       0.00000000
Si      -1.71598860       1.00923066       1.30619127       0.00000000
Si       0.97427232      -1.37564163       1.72065713       0.00000000
Si      -1.55825253      -0.82982889      -1.74812506       0.00000000
Si       3.33255933       0.33695865      -0.68652586       0.00000000
Si      -3.32140068      -0.74741778       1.48547377       0.00000000
Si       0.73966374      -3.61452294       0.86587729       0.00000000
Si      -0.90515385       1.31466816       3.46309560       0.00000000
Si       3.35888397      -0.93441069       1.62998195       0.00000000
Si      -2.46560553       1.19493666      -2.71580945       0.00000000
