10
Lattice="16.28999089631971 0.0 0.0 0.0 16.28999089631971 0.0 0.0 0.0 34.46413024517268" Properties=species:S:1:pos:R:3:initial_magmoms:R:1 pbc="T T T"
Si      -2.18955519      -0.01930365       0.89220790       0.00000000
Si       1.52679654      -1.02477132       1.50249906       0.00000000
Si       0.03679911       2.34326763      -0.38468884       0.00000000
Si      -0.17795196      -1.81284894      -1.61709236       0.00000000
Si      -1.80660987       2.32860663      -1.86020247       0.00000000
Si      -1.38276036      -3.27981231      -0.05838227       0.00000000
Si      -1.82545740      -2.30384583       2.15873093       0.00000000
Si       3.33879840       0.51764733       1.51070153       0.00000000
Si       2.10839841      -2.58771537      -1.61516237       0.00000000
Si       0.18226881      -1.51962894       3.38455180       0.00000000
