10
Lattice="16.28999089631971 0.0 0.0 0.0 16.28999089631971 0.0 0.0 0.0 34.46413024517268" Properties=species:S:1:pos:R:3:initial_magmoms:R:1 pbc="T T T"
Si      -1.80349848      -1.39103568       0.84437166       0.00000000
Si       0.19222200       1.57392351       1.84138504       0.00000000
Si       1.70536752      -1.72843416      -0.14264711       0.00000000
Si       0.84015675       1.71980046      -1.60151456       0.00000000
Si      -1.91288583      -0.98126073      -1.61347362       0.00000000
Si      -2.99701791       0.18955044       2.12905730       0.00000000
Si       2.79683010       2.37755808      -0.36311428       0.00000000
Si       2.10525444       0.38372724      -3.05838309       0.00000000
Si      -1.25542143       3.37093857       1.19594045       0.00000000
Si       2.38770675       2.30453001       1.93764341       0.00000000
