10
Lattice="16.28999089631971 0.0 0.0 0.0 16.28999089631971 0.0 0.0 0.0 34.46413024517268" Properties=species:S:1:pos:R:3:initial_magmoms:R:1 pbc="T T T"
Si       1.63755225       1.55429406       0.74466688       0.00000000
Si      -1.47460338      -0.92587473       1.62315805       0.00000000
Si       1.31569443      -1.92867084      -0.54949640       0.00000000
Si      -1.22399802       0.58562550      -1.98689268       0.00000000
Si       0.23371263      -0.25199001      -3.59164688       0.00000000
Si      -1.77934041      -3.08760660       0.75590219       0.00000000
Si       3.10739895       1.67990625      -1.17767445       0.00000000
Si       0.87180822      -2.36820762      -2.85052981       0.00000000
Si       0.46520982       3.61335006       1.21527484       0.00000000
Si       2.51524116       0.64242873       2.83481415       0.00000000
