10
Lattice="16.28999089631971 0.0 0.0 0.0 16.28999089631971 0.0 0.0 0.0 34.46413024517268" Properties=species:S:1:pos:R:3:initial_magmoms:R:1 pbc="T T T"
Si      -0.81019944       1.55707965      -1.61667879       0.00000000
Si       1.14202674       1.53950274       1.45070431       0.00000000
Si       1.43177697      -1.16421372      -1.56705041       0.00000000
Si      -1.57178952      -1.13555961       1.51917768       0.00000000
Si       2.63638989      -2.61583191      -0.10894118       0.00000000
Si      -1.29174813       0.02884959      -3.49835242       0.00000000
Si      -2.61651609       2.64433941      -0.27498945       0.00000000
Si       2.55314799       2.77092900      -0.08829715       0.00000000
Si      -0.18331137      -2.51898786       2.85197183       0.00000000
Si       2.52356535       0.21554928       2.86222491       0.00000000
