10
Lattice="16.28999089631971 0.0 0.0 0.0 16.28999089631971 0.0 0.0 0.0 34.46413024517268" Properties=species:S:1:pos:R:3:initial_magmoms:R:1 pbc="T T T"
Si       1.04958099       1.65978225       1.47916683       0.00000000
Si       1.67658309      -1.25561691      -1.29292257       0.00000000
Si      -1.67607810      -1.38912975       1.24139867       0.00000000
Si      -1.26760635       2.39541911      -1.20969165       0.00000000
Si      -0.94359825       2.95820603       1.28644331       0.00000000
Si      -2.08873638       0.57400814      -2.62423820       0.00000000
Si       1.41685533      -3.39071463      -0.02664079       0.00000000
Si       0.52426107      -2.45272014      -2.92624754       0.00000000
Si       1.75910823      -2.65101831       2.21201251       0.00000000
Si      -0.32482260      -2.17111491       3.19375827       0.00000000
