10
Lattice="16.28999089631971 0.0 0.0 0.0 16.28999089631971 0.0 0.0 0.0 34.46413024517268" Properties=species:S:1:pos:R:3:initial_magmoms:R:1 pbc="T T T"
Si       0.24988860       2.32614684       0.44148576       0.00000000
Si      -0.20338065      -0.32272119      -2.44216410       0.00000000
Si       1.21112892      -0.07675848       2.20508521       0.00000000
Si      -2.15221851      -1.29060783       0.67670358       0.00000000
Si       2.87435421       0.07438014      -0.12613879       0.00000000
Si       0.28461888       3.28065517      -1.90114588       0.00000000
Si       1.01401992       1.49828904      -3.36025458       0.00000000
Si      -2.52061686      -0.93587679      -2.71008840       0.00000000
Si      -1.34201907      -2.84768748       2.29338236       0.00000000
Si      -1.46642580       2.91306008       2.15004597       0.00000000
