10
Lattice="16.28999089631971 0.0 0.0 0.0 16.28999089631971 0.0 0.0 0.0 34.46413024517268" Properties=species:S:1:pos:R:3:initial_magmoms:R:1 pbc="T T T"
Si      -0.49111092       0.23982627       2.25743626       0.00000000
Si      -1.95550047      -0.75643334      -1.23750422       0.00000000
Si       1.85834691      -1.69167482       0.08450609       0.00000000
Si       0.89443503       2.00381661      -1.28885580       0.00000000
Si       1.65183858       1.38880395       2.52980643       0.00000000
Si      -0.48189078      -1.95827696      -2.66066681       0.00000000
Si       2.26639512       0.77047953      -2.68375779       0.00000000
Si       0.88514973      -3.39106391      -1.24308741       0.00000000
Si      -2.16367038       1.92130776       2.39539625       0.00000000
Si       3.53532096      -0.66753881      -1.30081486       0.00000000
