10
Lattice="16.28999089631971 0.0 0.0 0.0 16.28999089631971 0.0 0.0 0.0 34.46413024517268" Properties=species:S:1:pos:R:3:initial_magmoms:R:1 pbc="T T T"
Si      -0.03411126       1.08409135      -2.09852206       0.00000000
Si      -1.38396582      -1.93122741      -0.12779307       0.00000000
Si      -0.94723092       1.72432093       1.36350515       0.00000000
Si       2.29428360      -0.37977203       0.65878222       0.00000000
Si       0.55798137       3.29088137      -1.37277600       0.00000000
Si       0.60084036       3.48650797       0.98708771       0.00000000
Si      -2.91173976      -1.24095495      -1.89380502       0.00000000
Si      -2.01577347      -2.25521922       2.17110356       0.00000000
Si       1.90084752      -1.36291818       2.90794708       0.00000000
Si       1.74417030       0.02763436      -3.36890508       0.00000000
