10
Lattice="16.28999089631971 0.0 0.0 0.0 16.28999089631971 0.0 0.0 0.0 34.46413024517268" Properties=species:S:1:pos:R:3:initial_magmoms:R:1 pbc="T T T"
Si      -1.35881406      -1.35485559       1.39596693       0.00000000
Si       1.35865116       1.36018242       1.39731103       0.00000000
Si      -1.38197844       1.29153636      -1.55791397       0.00000000
Si       1.40597361      -1.45412685      -1.48596661       0.00000000
Si       2.70221778       2.70666495       0.02835366       0.00000000
Si      -2.70959715       2.70275535       0.01327904       0.00000000
Si      -2.70053991      -2.72227077       0.02887406       0.00000000
Si       2.70910845      -2.72243367       0.02732662       0.00000000
Si       2.71184517       0.00434943       2.75633584       0.00000000
Si      -0.00340461      -2.71329498       2.75609459       0.00000000
