10
Lattice="16.28999089631971 0.0 0.0 0.0 16.28999089631971 0.0 0.0 0.0 34.46413024517268" Properties=species:S:1:pos:R:3:initial_magmoms:R:1 pbc="T T T"
Si       1.35609363       1.35896067      -1.35685357       0.00000000
Si       1.35721764      -1.35700587       1.35771517       0.00000000
Si      -1.35796698       1.35812988       1.35809428       0.00000000
Si      -1.35915615      -1.35868374      -1.35709482       0.00000000
Si       2.71437012      -2.71481321       0.00010339       0.00000000
Si       0.00027693      -2.71441573       2.71498231       0.00000000
Si       0.00307881      -2.71478877      -2.71525802       0.00000000
Si      -2.71554300      -2.71466660       0.00006893       0.00000000
Si       2.71498914       2.71542897       0.00020678       0.00000000
Si       0.00289962       2.71479366      -2.71587837       0.00000000
