10
Lattice="16.28999089631971 0.0 0.0 0.0 16.28999089631971 0.0 0.0 0.0 34.46413024517268" Properties=species:S:1:pos:R:3:initial_magmoms:R:1 pbc="T T T"
Si      -1.35392706      -1.36311462       1.37050482       0.00000000
Si       1.36324494       1.35252612       1.37763889       0.00000000
Si      -1.38153861       1.32395346      -1.41152060       0.00000000
Si       1.30008861      -1.44409221      -1.43600393       0.00000000
Si       2.69798238       2.68977222       0.00693763       0.00000000
Si      -2.52356535      -0.21554928      -2.86222491       0.00000000
Si       2.70493821      -2.73062754       0.00482153       0.00000000
Si       0.00003258       2.70894555       2.73249354       0.00000000
Si      -2.70687672      -2.73453714      -0.01025308       0.00000000
Si       2.71363707      -0.00353493       2.73318282       0.00000000
