10
Lattice="16.28999089631971 0.0 0.0 0.0 16.28999089631971 0.0 0.0 0.0 34.46413024517268" Properties=species:S:1:pos:R:3:initial_magmoms:R:1 pbc="T T T"
Si      -0.83758293      -1.87240518       1.14589851       0.00000000
Si       2.33787564      -0.18033030       0.22343108       0.00000000
Si      -0.44388621      -0.43953678      -2.30103341       0.00000000
Si      -1.31569443       1.92867084       0.54949640       0.00000000
Si       2.44429821      -2.35405161      -0.72895123       0.00000000
Si       0.32329134      -3.45683574      -0.25889469       0.00000000
Si      -3.09503484      -1.15893576       1.30539859       0.00000000
Si      -1.08198180       1.67668083      -3.04215048       0.00000000
Si      -2.79029781       1.00279611       2.17265445       0.00000000
Si       0.32185782       3.48296490       1.29416328       0.00000000
