10
Lattice="16.28999089631971 0.0 0.0 0.0 16.28999089631971 0.0 0.0 0.0 34.46413024517268" Properties=species:S:1:pos:R:3:initial_magmoms:R:1 pbc="T T T"
Si       1.35742941       1.35620766       1.35678464       0.00000000
Si       1.35685926      -1.35746199      -1.35709482       0.00000000
Si      -1.35778779       1.35786924      -1.35719821       0.00000000
Si      -1.35967743      -1.35834165       1.35719821       0.00000000
Si      -2.71015101       0.00177561       2.71394838       0.00000000
Si       2.71433754       0.00042354       2.71184607       0.00000000
Si      -0.00242721       2.71388876      -2.71446534       0.00000000
Si      -0.00215028      -2.71437012      -2.71415517       0.00000000
Si       2.71464705      -0.00053757      -2.71498231       0.00000000
Si       2.71464705      -2.71500543      -0.00027571       0.00000000
