10
Lattice="16.28999089631971 0.0 0.0 0.0 16.28999089631971 0.0 0.0 0.0 34.46413024517268" Properties=species:S:1:pos:R:3:initial_magmoms:R:1 pbc="T T T"
Si       1.34359549       1.34513046       1.35492357       0.00000000
Si       1.35528030      -1.35405738      -1.35616428       0.00000000
Si      -1.36028129       1.35705474      -1.35475125       0.00000000
Si      -1.36096547      -1.35738054       1.37239690       0.00000000
Si       2.66045628      -0.04631247       2.70464306       0.00000000
Si       2.71279605       0.00130320      -2.71287999       0.00000000
Si      -0.00184699      -2.71324611      -2.71294892       0.00000000
Si       2.71222590      -2.71448415       0.00220571       0.00000000
Si       2.71199784       2.71547784       0.00582444       0.00000000
Si      -2.71657040      -2.71270854       0.00224017       0.00000000
