10
Lattice="16.28999089631971 0.0 0.0 0.0 16.28999089631971 0.0 0.0 0.0 34.46413024517268" Properties=species:S:1:pos:R:3:initial_magmoms:R:1 pbc="T T T"
Si       1.21148730       1.35461124       1.54141740       0.00000000
Si      -1.41112125      -1.23142626       1.53900146       0.00000000
Si      -1.21112892       0.07675848      -2.20508521       0.00000000
Si       1.66322529       0.15113862      -2.33122400       0.00000000
Si      -0.96124032       2.40290532      -1.76359946       0.00000000
Si      -2.55314799      -2.77092900       0.08829715       0.00000000
Si       2.70977634      -1.89511344      -1.84507271       0.00000000
Si       2.99858175       2.41049646       0.30779419       0.00000000
Si      -3.36334743      -1.21384935      -1.52838164       0.00000000
Si      -0.02958264      -2.55537972       2.95052206       0.00000000
