10
Lattice="16.28999089631971 0.0 0.0 0.0 16.28999089631971 0.0 0.0 0.0 34.46413024517268" Properties=species:S:1:pos:R:3:initial_magmoms:R:1 pbc="T T T"
Si      -2.30286843       0.37265004      -0.45589177       0.00000000
Si       0.55314324      -1.97137019      -1.23864153       0.00000000
Si       1.26172633       1.94007384      -0.61511614       0.00000000
Si       0.06929766      -0.04341285       2.43575377       0.00000000
Si      -2.82779739       1.60834428       1.46720777       0.00000000
Si      -0.32347053       3.69362718      -0.55666494       0.00000000
Si       2.34000053      -3.11610500      -0.09591373       0.00000000
Si       0.14323797      -2.18884495       3.26578834       0.00000000
Si      -2.12027382       0.27227106       3.30800693       0.00000000
Si      -1.17154422      -3.64178330      -1.05729118       0.00000000
