10
Lattice="16.28999089631971 0.0 0.0 0.0 16.28999089631971 0.0 0.0 0.0 34.46413024517268" Properties=species:S:1:pos:R:3:initial_magmoms:R:1 pbc="T T T"
Si       0.07394031      -2.14543210       0.83003458       0.00000000
Si       1.86761333       1.13409351       0.93308238       0.00000000
Si      -2.18957148       0.31568391       0.87225316       0.00000000
Si      -0.06929766       0.04341285      -2.43575377       0.00000000
Si      -2.89709505       1.65175713      -0.96854599       0.00000000
Si       2.03961130      -2.88180593      -0.12930949       0.00000000
Si      -2.37216609       0.41606289      -2.89164554       0.00000000
Si       1.51508144       3.44825091       0.68652586       0.00000000
Si       1.19242867       1.98348669      -3.05086991       0.00000000
Si      -1.99914138      -3.28956092       0.48811575       0.00000000
