10
Lattice="16.28999089631971 0.0 0.0 0.0 16.28999089631971 0.0 0.0 0.0 34.46413024517268" Properties=species:S:1:pos:R:3:initial_magmoms:R:1 pbc="T T T"
Si      -0.01756062       1.03117329      -2.14870187       0.00000000
Si      -1.73946249      -1.62682366       0.45265214       0.00000000
Si       2.09186406      -1.25160957      -0.14468050       0.00000000
Si      -0.58769433       2.12607306       1.79416916       0.00000000
Si      -0.93429666      -3.34934522      -0.95145178       0.00000000
Si       1.71703116      -2.78475025       1.65193561       0.00000000
Si       3.76111895       0.45431181       0.04073662       0.00000000
Si       1.30495932       2.99545407      -2.00405583       0.00000000
Si      -2.55197511       2.84325660       0.62997019       0.00000000
Si      -3.82489200      -0.84797595      -0.25244990       0.00000000
