10
Lattice="16.28999089631971 0.0 0.0 0.0 16.28999089631971 0.0 0.0 0.0 34.46413024517268" Properties=species:S:1:pos:R:3:initial_magmoms:R:1 pbc="T T T"
Si       1.35743144       1.35804843      -1.35540607       0.00000000
Si      -1.35749457       1.35689184       1.35778410       0.00000000
Si      -1.35769005      -1.35874890      -1.35616428       0.00000000
Si       1.35760351      -1.35777150       1.35785303       0.00000000
Si      -0.00083079       2.71252935       2.71605069       0.00000000
Si      -0.00017919      -2.71429356       2.71484445       0.00000000
Si       2.71455324       2.71479366       0.00044803       0.00000000
Si       2.71473080       0.00141723       2.71463766       0.00000000
Si      -2.71474479       2.71477737       0.00031018       0.00000000
Si       2.71224495      -0.00024435      -2.71749819       0.00000000
