10
Lattice="16.28999089631971 0.0 0.0 0.0 16.28999089631971 0.0 0.0 0.0 34.46413024517268" Properties=species:S:1:pos:R:3:initial_magmoms:R:1 pbc="T T T"
Si      -1.35666378      -1.35563751      -1.35826660       0.00000000
Si       1.36028129      -1.35705474       1.35475125       0.00000000
Si      -1.35627282       1.35962856       1.35905927       0.00000000
Si       1.35830110       1.35956340      -1.35795642       0.00000000
Si       0.01827738       2.69632080       2.71529248       0.00000000
Si       2.70387677      -0.01192428       2.70967483       0.00000000
Si       2.71556159      -2.71111212      -0.00141303       0.00000000
Si      -2.71371852      -2.71298547      -0.00020678       0.00000000
Si       0.00083079      -2.71252935      -2.71605069       0.00000000
Si      -2.71391400       0.00224802      -2.71574052       0.00000000
