10
Lattice="16.28999089631971 0.0 0.0 0.0 16.28999089631971 0.0 0.0 0.0 34.46413024517268" Properties=species:S:1:pos:R:3:initial_magmoms:R:1 pbc="T T T"
Si      -1.08916569      -2.03322006       0.43514435       0.00000000
Si      -1.82689092       0.59535063       1.45997030       0.00000000
Si       1.88815761       0.46924974      -1.45252605       0.00000000
Si      -0.72137007      -2.42864352      -1.80188913       0.00000000
Si       0.56426931       3.00568419       0.86091445       0.00000000
Si       0.98241732      -2.31570495       1.94157233       0.00000000
Si       0.41487372      -0.80317845      -3.05086991       0.00000000
Si       2.18114955       1.32853095       2.32381421       0.00000000
Si       2.83661028      -0.91246806       2.05178868       0.00000000
Si       3.64289590      -0.82772748      -0.24304118       0.00000000
