10
Lattice="16.28999089631971 0.0 0.0 0.0 16.28999089631971 0.0 0.0 0.0 34.46413024517268" Properties=species:S:1:pos:R:3:initial_magmoms:R:1 pbc="T T T"
Si       0.94084524       2.16277443      -0.08212807       0.00000000
Si      -1.49491701       0.01552437       1.82952938       0.00000000
Si       1.58519686      -1.75355334      -0.05845120       0.00000000
Si      -0.85853187       2.26017234      -1.56253561       0.00000000
Si      -3.03492474       1.47027024      -1.01620991       0.00000000
Si       2.35694538      -1.42921944      -2.26205445       0.00000000
Si       0.32347053      -3.69362718       0.55666494       0.00000000
Si      -0.23511357       0.54077913       3.72864187       0.00000000
Si      -2.50432686      -2.08528290       2.02387272       0.00000000
Si      -1.97939790      -3.32097714       0.10077317       0.00000000
