10
Lattice="16.28999089631971 0.0 0.0 0.0 16.28999089631971 0.0 0.0 0.0 34.46413024517268" Properties=species:S:1:pos:R:3:initial_magmoms:R:1 pbc="T T T"
Si       1.85380298       0.91569348       1.08841231       0.00000000
Si       1.31267198      -1.32496344      -1.42323152       0.00000000
Si      -1.37292741       1.38328164      -1.41761386       0.00000000
Si      -1.22292909      -1.35322659       1.59448388       0.00000000
Si       0.53272796       2.33779419       2.38281683       0.00000000
Si       3.43505699      -0.85297698       1.24129527       0.00000000
Si      -2.69621298      -2.62565478      -0.00385998       0.00000000
Si       2.62953278      -2.71640637      -0.07351203       0.00000000
Si      -0.03092350      -2.67009390      -2.77815509       0.00000000
Si       2.68107434       0.04538394      -2.77233065       0.00000000
