10
Lattice="16.28999089631971 0.0 0.0 0.0 16.28999089631971 0.0 0.0 0.0 34.46413024517268" Properties=species:S:1:pos:R:3:initial_magmoms:R:1 pbc="T T T"
Si      -1.56515949      -1.74294855      -0.04480339       0.00000000
Si      -0.05582583       1.55559726      -1.76349607       0.00000000
Si       2.01762306      -0.64870038      -1.03109842       0.00000000
Si       0.18516843       0.83209320       2.20636039       0.00000000
Si      -1.46764755      -0.05722677      -3.02895071       0.00000000
Si       1.33278331      -2.78080074      -1.70511380       0.00000000
Si       3.53822777       0.05877432       0.56404027       0.00000000
Si       2.51542754       1.09651248       2.45074567       0.00000000
Si      -3.28442238      -0.98772786       1.35096020       0.00000000
Si      -1.10390814       2.87428905       2.13629477       0.00000000
