10
Lattice="16.28999089631971 0.0 0.0 0.0 16.28999089631971 0.0 0.0 0.0 34.46413024517268" Properties=species:S:1:pos:R:3:initial_magmoms:R:1 pbc="T T T"
Si      -0.14589324       1.44451575       1.80368126       0.00000000
Si      -1.79937711       0.09739791      -1.48040754       0.00000000
Si      -0.94084524      -2.16277443       0.08212807       0.00000000
Si       2.25509705       0.16382853      -0.73980743       0.00000000
Si       3.29825978      -0.08838954       1.31563444       0.00000000
Si       2.16791297       1.72773369       2.29779378       0.00000000
Si      -0.84129705      -0.61452396      -3.46216507       0.00000000
Si      -2.43576225      -2.14725006       1.91165744       0.00000000
Si       2.66120675      -1.50312717      -2.30227412       0.00000000
Si       0.64435162      -3.91632777       0.02367687       0.00000000
