10
Lattice="16.28999089631971 0.0 0.0 0.0 16.28999089631971 0.0 0.0 0.0 34.46413024517268" Properties=species:S:1:pos:R:3:initial_magmoms:R:1 pbc="T T T"
Si       1.01576295      -2.08459872       0.25951505       0.00000000
Si       0.66181383       1.22049567      -1.89259877       0.00000000
Si      -2.37405573      -0.28251747      -0.37962261       0.00000000
Si       1.03342131       0.67898349       2.12347411       0.00000000
Si       0.12284289      -2.80539864       2.30093001       0.00000000
Si      -0.77024007       1.64141298       3.24049166       0.00000000
Si       2.99207294       1.48491495      -1.64821349       0.00000000
Si      -0.62726274       3.26269152      -1.96266439       0.00000000
Si       3.32956916      -1.80138078       0.75362756       0.00000000
Si       1.50849865      -1.26739458       3.43862605       0.00000000
