10
Lattice="16.28999089631971 0.0 0.0 0.0 16.28999089631971 0.0 0.0 0.0 34.46413024517268" Properties=species:S:1:pos:R:3:initial_magmoms:R:1 pbc="T T T"
Si      -0.28522161      -1.10895804      -2.05216778       0.00000000
Si      -2.17650690       0.80712063       0.44165808       0.00000000
Si       0.67406391      -1.53578862       1.66468735       0.00000000
Si       0.91222371       2.14562106      -0.46106139       0.00000000
Si       0.07713315       0.67360779      -3.67973724       0.00000000
Si       3.04528518      -1.78059474       1.36126498       0.00000000
Si      -2.34144315      -2.31327774      -1.89011735       0.00000000
Si       3.22072848       1.85290605      -0.80632324       0.00000000
Si       0.19963395      -0.35166852       3.78430147       0.00000000
Si      -1.98210204       2.70185940       1.80654179       0.00000000
