10
Lattice="16.28999089631971 0.0 0.0 0.0 16.28999089631971 0.0 0.0 0.0 34.46413024517268" Properties=species:S:1:pos:R:3:initial_magmoms:R:1 pbc="T T T"
Si       1.41638292       1.35332433       1.23560869       0.00000000
Si      -0.39602619       1.37218815      -1.92451257       0.00000000
Si      -2.00891538      -0.31744323       1.44022234       0.00000000
Si       1.85508891      -1.72141317      -0.01826600       0.00000000
Si      -2.44854990      -2.37586392       0.30345684       0.00000000
Si       3.26691063      -0.10858914       1.24718864       0.00000000
Si      -1.36922337      -0.32720094      -3.25210608       0.00000000
Si      -0.74298690      -0.64573560       3.41708596       0.00000000
Si      -2.03942655      -2.30283585      -1.99730086       0.00000000
Si       0.58497390       1.27552329       3.41257116       0.00000000
