10
Lattice="16.28999089631971 0.0 0.0 0.0 16.28999089631971 0.0 0.0 0.0 34.46413024517268" Properties=species:S:1:pos:R:3:initial_magmoms:R:1 pbc="T T T"
Si      -1.63385442       0.06542064      -1.73440832       0.00000000
Si       1.72468746       1.67041311      -0.18135035       0.00000000
Si       1.28907657      -2.04219585       0.07006562       0.00000000
Si      -1.63292589       0.23385924       1.77538620       0.00000000
Si       3.51154475       0.52567830       0.96137745       0.00000000
Si      -2.70860346       2.26657987       1.05525779       0.00000000
Si       1.10390814      -2.87428905      -2.13629477       0.00000000
Si       0.62726274      -3.26269152       1.96266439       0.00000000
Si      -3.40452855       1.49162547      -1.06831971       0.00000000
Si      -2.96181522      -1.85583825      -1.72989352       0.00000000
