10
Lattice="16.28999089631971 0.0 0.0 0.0 16.28999089631971 0.0 0.0 0.0 34.46413024517268" Properties=species:S:1:pos:R:3:initial_magmoms:R:1 pbc="T T T"
Si      -0.46416726      -1.95061347       1.14183174       0.00000000
Si      -1.04316273       0.25221807      -2.05544188       0.00000000
Si       2.25160380       0.67974912      -0.04449322       0.00000000
Si      -1.13034681       1.81612323       0.98215933       0.00000000
Si       0.49412457       2.06513217      -2.63288870       0.00000000
Si       1.70235387       2.86084980      -0.76431144       0.00000000
Si      -3.29825978       0.08838954      -1.31563444       0.00000000
Si       3.12152238       0.48695697       2.10286455       0.00000000
Si      -3.44415302       1.53290529       0.48804682       0.00000000
Si      -0.45857979      -3.80682639      -0.29635722       0.00000000
