10
Lattice="16.28999089631971 0.0 0.0 0.0 16.28999089631971 0.0 0.0 0.0 34.46413024517268" Properties=species:S:1:pos:R:3:initial_magmoms:R:1 pbc="T T T"
Si       1.39119858      -1.59431859      -1.28361725       0.00000000
Si       1.14498338       1.32354621       1.76042673       0.00000000
Si      -1.48730699      -1.22194548       1.68073528       0.00000000
Si      -0.60460076       1.52073666      -2.02845645       0.00000000
Si       2.06738996       3.08245896       0.51251637       0.00000000
Si       2.39294561      -2.84081310       0.50134998       0.00000000
Si       3.51944798      -0.34489188      -1.53596375       0.00000000
Si      -2.97582203       1.76554278      -1.72503408       0.00000000
Si       2.49391103      -0.08548992       3.20571186       0.00000000
Si      -3.34799966      -2.31425514       0.74243261       0.00000000
