10
Lattice="16.28999089631971 0.0 0.0 0.0 16.28999089631971 0.0 0.0 0.0 34.46413024517268" Properties=species:S:1:pos:R:3:initial_magmoms:R:1 pbc="T T T"
Si      -1.32107502       1.42210071       1.29440453       0.00000000
Si      -1.85380298      -0.91569348      -1.08841231       0.00000000
Si       1.58125401      -1.76867046       0.15288297       0.00000000
Si       1.10641680       1.87738992      -0.96654707       0.00000000
Si       2.21078106       0.49143672      -2.49113765       0.00000000
Si       2.17588788       2.27284596       1.27276104       0.00000000
Si      -0.54113099      -2.24065692      -2.51164382       0.00000000
Si       0.63744399      -0.93903705       3.46678326       0.00000000
Si       2.50652601       0.29574495       2.67396997       0.00000000
Si       0.92064564      -2.85353559       2.17827211       0.00000000
