10
Lattice="16.28999089631971 0.0 0.0 0.0 16.28999089631971 0.0 0.0 0.0 34.46413024517268" Properties=species:S:1:pos:R:3:initial_magmoms:R:1 pbc="T T T"
Si       1.52060471       0.70747470       1.59513870       0.00000000
Si      -0.68483974      -2.13210036      -0.67401537       0.00000000
Si      -2.01762306       0.64870038       1.03109842       0.00000000
Si       0.86051762       0.84102012      -2.02676770       0.00000000
Si      -2.07344889       2.20429764      -0.73239764       0.00000000
Si      -0.71124421      -1.05160095      -2.86428100       0.00000000
Si       2.45977208      -1.29207393       2.26863711       0.00000000
Si       1.76501987       3.00501630      -1.14979296       0.00000000
Si       1.24727480      -3.41273871      -0.69190227       0.00000000
Si      -3.58278255      -1.09424817       0.98629503       0.00000000
