10
Lattice="16.28999089631971 0.0 0.0 0.0 16.28999089631971 0.0 0.0 0.0 34.46413024517268" Properties=species:S:1:pos:R:3:initial_magmoms:R:1 pbc="T T T"
Si      -1.35587697       1.35350352      -1.36140283       0.00000000
Si      -1.33318826      -1.35148356       1.39493645       0.00000000
Si       1.36088289      -1.35804843      -1.36181640       0.00000000
Si       1.33986879       1.37277459       1.38070276       0.00000000
Si       2.52936459      -0.14779917       2.70236843       0.00000000
Si      -2.71035368       2.71306692      -0.00372213       0.00000000
Si      -2.71308725      -0.00135207      -2.71842872       0.00000000
Si       0.00112401       2.71338692      -2.71818747       0.00000000
Si      -2.71209804      -2.71992501       0.00106839       0.00000000
Si       2.71682991       2.71543811       0.00210231       0.00000000
