10
Lattice="16.28999089631971 0.0 0.0 0.0 16.28999089631971 0.0 0.0 0.0 34.3005442915855" Properties=species:S:1:pos:R:3:initial_magmoms:R:1 pbc="T T T"
Si      -1.63874698       0.96496584      -1.48891886       0.00000000
Si       1.04335169      -1.72370259      -1.39428360       0.00000000
Si       1.78266520       1.71290816      -0.43472534       0.00000000
Si      -1.76668864       0.82403128       1.89640955       0.00000000
Si       1.26530946      -1.45596015       2.86142161       0.00000000
Si      -2.66969221       2.57098391       0.00497358       0.00000000
Si      -0.35423161       2.22780248      -3.05467098       0.00000000
Si       2.25624808      -0.60844032      -3.09672347       0.00000000
Si       3.32405758       1.61544509       1.33069036       0.00000000
Si       3.33920728      -0.61278975       2.05360903       0.00000000
