10
Lattice="16.28999089631971 0.0 0.0 0.0 16.28999089631971 0.0 0.0 0.0 34.3005442915855" Properties=species:S:1:pos:R:3:initial_magmoms:R:1 pbc="T T T"
Si       0.07928180       1.49395590      -1.85408266       0.00000000
Si      -1.58876111      -1.90793367      -0.08369337       0.00000000
Si      -0.90769250       2.03101344       1.32780911       0.00000000
Si       2.16671009      -1.18851840       0.82290482       0.00000000
Si      -1.67368088       0.21502800       2.73655868       0.00000000
Si      -3.18651689      -0.95609268       1.44673023       0.00000000
Si       2.27427296       2.70726672      -1.20940357       0.00000000
Si       1.08239882      -2.59309107       2.52312685       0.00000000
Si       0.71519942       0.35248302      -3.84258922       0.00000000
Si       2.43018455      -2.41452009      -1.98010293       0.00000000
