10
Lattice="16.28999089631971 0.0 0.0 0.0 16.28999089631971 0.0 0.0 0.0 34.3005442915855" Properties=species:S:1:pos:R:3:initial_magmoms:R:1 pbc="T T T"
Si       1.35501849      -1.35436104       1.35991444       0.00000000
Si      -1.35705474      -1.35645941      -1.35645008       0.00000000
Si      -1.35479043       1.35618811       1.36036035       0.00000000
Si       1.35769005       1.35825694      -1.35624428       0.00000000
Si      -2.71361101      -2.71250721       0.00171503       0.00000000
Si       0.00065160      -2.71425024      -2.71375768       0.00000000
Si      -2.71474642       0.00093993      -2.71362048       0.00000000
Si       2.71502172       0.00086826      -2.71341467       0.00000000
Si       2.71371852       2.71596328       0.00068601       0.00000000
Si      -0.00016290       2.71624021      -2.71396348       0.00000000
