10
Lattice="16.28999089631971 0.0 0.0 0.0 16.28999089631971 0.0 0.0 0.0 34.3005442915855" Properties=species:S:1:pos:R:3:initial_magmoms:R:1 pbc="T T T"
Si      -1.35180936      -1.33903800      -1.37757923       0.00000000
Si       1.36172997       1.37691225      -1.37534969       0.00000000
Si      -1.44026406       1.32716259       1.37541829       0.00000000
Si       1.48561542      -1.28171349       1.46569738       0.00000000
Si       0.35956917       2.15990739       2.78084958       0.00000000
Si       2.35916667       0.51868989       2.91283815       0.00000000
Si      -2.70788670      -2.69236233       0.01015297       0.00000000
Si      -2.69649999       2.73510729      -0.02874387       0.00000000
Si       0.00294849      -2.69742852      -2.73653325       0.00000000
Si      -2.70992295       0.01713708      -2.73701346       0.00000000
