10
Lattice="16.28999089631971 0.0 0.0 0.0 16.28999089631971 0.0 0.0 0.0 34.3005442915855" Properties=species:S:1:pos:R:3:initial_magmoms:R:1 pbc="T T T"
Si       0.48961224      -2.21907267       0.96610967       0.00000000
Si      -1.17292887      -1.38794058      -1.68937135       0.00000000
Si       2.26962054       0.31522779      -1.18278633       0.00000000
Si      -1.00776456       0.42024942       2.34629574       0.00000000
Si       0.63855171      -1.10410362       3.05374486       0.00000000
Si      -3.19828086      -0.16461045      -1.83514875       0.00000000
Si       3.49892910       0.64746234       1.17050673       0.00000000
Si      -3.04417746      -0.78964146       2.08705208       0.00000000
Si       2.35201536      -3.10884876      -0.09216561       0.00000000
Si       1.58452830       0.25332579      -3.60540083       0.00000000
