10
Lattice="16.28999089631971 0.0 0.0 0.0 16.28999089631971 0.0 0.0 0.0 34.3005442915855" Properties=species:S:1:pos:R:3:initial_magmoms:R:1 pbc="T T T"
Si       0.35191287      -1.36691019      -1.85603779       0.00000000
Si       1.04622525       2.07142011      -0.29882651       0.00000000
Si       0.96563862      -1.46225556       1.60979404       0.00000000
Si      -2.11330170       0.77556690       0.78263596       0.00000000
Si      -1.58089563       0.90191214       3.09998202       0.00000000
Si      -0.57399444      -1.21990923       3.36979026       0.00000000
Si      -0.78081228       3.35775996      -1.24524766       0.00000000
Si       2.30839074      -2.55291993      -1.27392293       0.00000000
Si      -3.35730384      -1.18193724       0.91009685       0.00000000
Si       1.59008319       2.83942845       1.91091869       0.00000000
