10
Lattice="16.28999089631971 0.0 0.0 0.0 16.28999089631971 0.0 0.0 0.0 34.3005442915855" Properties=species:S:1:pos:R:3:initial_magmoms:R:1 pbc="T T T"
Si       1.53963306      -0.24234633      -1.75999621       0.00000000
Si      -1.00690119       2.12182137      -0.26980823       0.00000000
Si      -1.81056834      -1.37036367      -0.69187667       0.00000000
Si       0.70558506       0.09383040       2.30163641       0.00000000
Si      -1.53930726       1.99547613      -2.58715430       0.00000000
Si       0.57399444       1.21990923      -3.36979026       0.00000000
Si       2.24668422       1.93447008       2.16508587       0.00000000
Si      -2.78330940       0.03797199      -2.45969341       0.00000000
Si      -2.82375747       2.20996656       1.31659283       0.00000000
Si      -3.12044724      -1.83936906       1.24864341       0.00000000
