10
Lattice="16.28999089631971 0.0 0.0 0.0 16.28999089631971 0.0 0.0 0.0 34.3005442915855" Properties=species:S:1:pos:R:3:initial_magmoms:R:1 pbc="T T T"
Si       0.86972310      -2.02329945       0.74631166       0.00000000
Si      -1.84319721      -0.40692420       1.38670318       0.00000000
Si       1.54109916       1.84063968      -0.13655054       0.00000000
Si      -0.70558506      -0.09383040      -2.30163641       0.00000000
Si      -1.35755973      -2.89874034       1.36046325       0.00000000
Si      -1.71248625       2.02799097      -2.57144464       0.00000000
Si      -3.84215940       0.04166982       0.21238909       0.00000000
Si       2.35478466      -2.91525840      -0.89918927       0.00000000
Si       2.87743302       2.12615451       1.73519690       0.00000000
Si      -2.33901594       0.87250869       3.26044387       0.00000000
