10
Lattice="16.28999089631971 0.0 0.0 0.0 16.28999089631971 0.0 0.0 0.0 34.3005442915855" Properties=species:S:1:pos:R:3:initial_magmoms:R:1 pbc="T T T"
Si       1.35798327      -1.35640314       1.36186957       0.00000000
Si      -1.35643572       1.36068741       1.36015454       0.00000000
Si      -1.34470692      -1.35702216      -1.39812870       0.00000000
Si       1.35324288       1.37277459      -1.39135777       0.00000000
Si       2.71287144      -2.71433754       0.00651711       0.00000000
Si       2.71350675       2.71575477       0.00133772       0.00000000
Si      -2.71555929      -2.71520091      -0.00061741       0.00000000
Si      -2.71492235       2.71656927      -0.00034301       0.00000000
Si       0.00021177      -2.71340901       2.71842256       0.00000000
Si       2.71482624       0.00201996       2.71873126       0.00000000
