10
Lattice="16.28999089631971 0.0 0.0 0.0 16.28999089631971 0.0 0.0 0.0 34.3005442915855" Properties=species:S:1:pos:R:3:initial_magmoms:R:1 pbc="T T T"
Si      -1.95051573       1.25485128       0.02280987       0.00000000
Si       0.29988261      -0.77498046      -2.18000661       0.00000000
Si       1.80595827       1.18400607       1.05800088       0.00000000
Si      -1.17830457      -2.30011542       1.08043345       0.00000000
Si       1.35231435       0.01410714       3.14776271       0.00000000
Si      -3.38293453      -0.39003147      -0.82825571       0.00000000
Si      -2.04248907      -1.38916233      -2.52356105       0.00000000
Si       2.32125984      -1.83115890       1.96624550       0.00000000
Si       1.11527856       1.05873597      -3.32471932       0.00000000
Si       2.26880604      -2.13749235      -2.04373047       0.00000000
