10
Lattice="16.28999089631971 0.0 0.0 0.0 16.28999089631971 0.0 0.0 0.0 34.3005442915855" Properties=species:S:1:pos:R:3:initial_magmoms:R:1 pbc="T T T"
Si      -1.13015133      -1.36570473      -1.55263357       0.00000000
Si       1.04936922      -1.59954768       1.39611868       0.00000000
Si      -1.67793516       1.12612770       1.36630120       0.00000000
Si       1.94062770       0.69076116      -1.46297189       0.00000000
Si       2.39855589      -0.24452919       2.76108903       0.00000000
Si      -0.67650741      -0.19580580      -3.64239540       0.00000000
Si      -0.31767129       2.46910788       2.75899669       0.00000000
Si       2.66597253       2.60521083      -0.08092532       0.00000000
Si      -0.31255623       2.22244470      -3.08648616       0.00000000
Si       2.45162871      -2.93140179       0.00508334       0.00000000
