10
Lattice="16.28999089631971 0.0 0.0 0.0 16.28999089631971 0.0 0.0 0.0 34.3005442915855" Properties=species:S:1:pos:R:3:initial_magmoms:R:1 pbc="T T T"
Si      -1.18874646       1.50182397       1.35909123       0.00000000
Si       1.35591444       1.35935163      -1.37301725       0.00000000
Si      -1.36625859      -1.35164646      -1.37150803       0.00000000
Si       1.24623387      -1.44570492       1.48336217       0.00000000
Si      -2.38672935      -0.03795570       2.78307912       0.00000000
Si       2.36421657       0.34899696       2.86656669       0.00000000
Si       2.70575271      -2.69874801       0.00504218       0.00000000
Si       2.70018153       2.70555723      -0.01865951       0.00000000
Si      -2.70774009      -2.70713736      -0.02054604       0.00000000
Si      -0.00605988      -2.70871749      -2.72740930       0.00000000
