10
Lattice="16.28999089631971 0.0 0.0 0.0 16.28999089631971 0.0 0.0 0.0 34.3005442915855" Properties=species:S:1:pos:R:3:initial_magmoms:R:1 pbc="T T T"
Si       2.21060187      -0.34070535      -0.82619767       0.00000000
Si      -0.99398322       0.38843505       2.13575888       0.00000000
Si      -1.50695532      -1.94746950      -0.25550490       0.00000000
Si      -0.76584177       1.76155077      -1.60012129       0.00000000
Si      -1.00913292       2.61666989       1.41284021       0.00000000
Si       2.24577198      -2.61410517      -0.34355444       0.00000000
Si      -3.28983880      -0.72247779      -1.31213375       0.00000000
Si      -2.07694242       0.39278448      -3.01457362       0.00000000
Si       0.95197131      -2.06024517      -2.95760038       0.00000000
Si      -2.55052530       2.71413296      -0.35257549       0.00000000
