10
Lattice="16.28999089631971 0.0 0.0 0.0 16.28999089631971 0.0 0.0 0.0 34.3005442915855" Properties=species:S:1:pos:R:3:initial_magmoms:R:1 pbc="T T T"
Si      -0.31700340      -2.08042848       1.02057897       0.00000000
Si      -2.18857779       0.75849498      -0.35981291       0.00000000
Si       0.99768105      -0.35891757      -2.13503857       0.00000000
Si       1.32843321       1.45469700       1.35696459       0.00000000
Si       3.21553197       0.67455261       0.26113019       0.00000000
Si       2.79863829       1.17506286      -1.98507651       0.00000000
Si      -0.46058346      -1.49843565       3.27189645       0.00000000
Si      -3.31292988      -1.22588766      -0.91009685       0.00000000
Si      -1.82154780       2.64109770      -1.85301934       0.00000000
Si      -3.14133102       1.09485090       1.76634182       0.00000000
