10
Lattice="16.28999089631971 0.0 0.0 0.0 16.28999089631971 0.0 0.0 0.0 34.3005442915855" Properties=species:S:1:pos:R:3:initial_magmoms:R:1 pbc="T T T"
Si       1.88709876      -0.78014439      -1.09583440       0.00000000
Si       0.39915387      -0.15441291       2.31226958       0.00000000
Si      -0.69623460       2.27068983      -0.10461672       0.00000000
Si      -1.32843321      -1.45469700      -1.35696459       0.00000000
Si      -1.63268154       0.77646285       2.92563226       0.00000000
Si       3.53330100       0.62100738      -0.32273400       0.00000000
Si      -1.34399016       2.41595917      -2.31226958       0.00000000
Si       0.37859589      -2.45767230       2.66858384       0.00000000
Si       1.47020508      -0.27963414      -3.34204110       0.00000000
Si       2.76701940       2.14816623       1.27237940       0.00000000
