10
Lattice="16.28999089631971 0.0 0.0 0.0 16.28999089631971 0.0 0.0 0.0 34.3005442915855" Properties=species:S:1:pos:R:3:initial_magmoms:R:1 pbc="T T T"
Si       1.79755752      -0.05727727      -1.50795567       0.00000000
Si      -0.31034242      -2.01707408       1.16241180       0.00000000
Si      -1.86163979       0.02641912      -1.44690067       0.00000000
Si       0.17120464       2.14004336       1.09353626       0.00000000
Si      -0.91824124       1.93317665      -2.58012268       0.00000000
Si      -0.94626004      -0.87560120       3.15091836       0.00000000
Si      -0.67542087       3.32284397      -0.73941725       0.00000000
Si       1.78968945      -2.38690595      -1.82818573       0.00000000
Si      -3.61467185      -0.29244622       0.21245769       0.00000000
Si       1.15020921       1.25266190      -3.36642880       0.00000000
