10
Lattice="16.28999089631971 0.0 0.0 0.0 16.28999089631971 0.0 0.0 0.0 34.3005442915855" Properties=species:S:1:pos:R:3:initial_magmoms:R:1 pbc="T T T"
Si      -1.35260757       1.35792460      -1.36241838       0.00000000
Si      -1.36199061      -1.37266940       1.34705173       0.00000000
Si       1.36251189      -1.35747083      -1.36245268       0.00000000
Si       1.36549296       1.38029729       1.35356884       0.00000000
Si      -2.70625770      -2.71887500      -0.00730602       0.00000000
Si      -2.71075374       2.71506894      -0.00226384       0.00000000
Si       2.71536381      -2.71423235      -0.00106332       0.00000000
Si      -2.71098180      -0.00088693      -2.71938297       0.00000000
Si       2.71656927       2.71663278      -0.00610550       0.00000000
Si       0.00384444       2.71467798      -2.71955447       0.00000000
