10
Lattice="16.28999089631971 0.0 0.0 0.0 16.28999089631971 0.0 0.0 0.0 34.3005442915855" Properties=species:S:1:pos:R:3:initial_magmoms:R:1 pbc="T T T"
Si       0.58986090      -0.89678309       2.08341622       0.00000000
Si      -0.56715264       2.26074738       0.31848073       0.00000000
Si       1.44159984       0.17749258      -1.88982384       0.00000000
Si      -1.66289949      -1.43674772      -1.05378191       0.00000000
Si      -0.41862042      -0.63475844      -3.20868051       0.00000000
Si      -1.24364376       0.11563945       3.19194183       0.00000000
Si      -1.81840383       2.29637361       2.34077335       0.00000000
Si       2.61648351      -0.09245552       2.97653430       0.00000000
Si      -3.87350136      -1.09604237      -0.22758424       0.00000000
Si       1.07887041      -3.24953150       2.15853446       0.00000000
