10
Lattice="16.28999089631971 0.0 0.0 0.0 16.28999089631971 0.0 0.0 0.0 34.3005442915855" Properties=species:S:1:pos:R:3:initial_magmoms:R:1 pbc="T T T"
Si      -0.01612710       1.97486928       1.26538209       0.00000000
Si      -2.08094161      -0.07977213      -1.13373652       0.00000000
Si       1.30987890       0.46900539      -1.94052008       0.00000000
Si      -1.00341513      -1.88210587       1.56832466       0.00000000
Si      -2.03520255       1.33507953       2.42384932       0.00000000
Si       1.98283509       1.52627526       2.43969618       0.00000000
Si       2.46847257      -0.96554088       2.41345625       0.00000000
Si      -3.41915778       1.16892153       0.37867822       0.00000000
Si       1.67870079      -1.67730474      -2.90416011       0.00000000
Si       3.12044724       1.83936906      -1.24864341       0.00000000
