10
Lattice="16.28999089631971 0.0 0.0 0.0 16.28999089631971 0.0 0.0 0.0 34.3005442915855" Properties=species:S:1:pos:R:3:initial_magmoms:R:1 pbc="T T T"
Si      -1.48506156       0.89195895       1.64550093       0.00000000
Si       1.40253642       1.51295004      -1.23831894       0.00000000
Si       1.27105983      -0.26036307       2.06496252       0.00000000
Si      -0.07776846      -2.06359371      -1.33689876       0.00000000
Si       0.59350986      -1.11665018      -3.34626007       0.00000000
Si       2.70606222      -1.99913242       1.28009703       0.00000000
Si       2.48497434       0.00003258      -2.73636175       0.00000000
Si       1.37152026      -3.43853297      -0.08973027       0.00000000
Si       2.83836960       2.55249639       0.31182642       0.00000000
Si      -2.35478466       2.91525840       0.89918927       0.00000000
