10
Lattice="16.28999089631971 0.0 0.0 0.0 16.28999089631971 0.0 0.0 0.0 34.3005442915855" Properties=species:S:1:pos:R:3:initial_magmoms:R:1 pbc="T T T"
Si       1.33941267       1.36888128      -1.38845251       0.00000000
Si      -1.37613033      -1.34465805      -1.38711479       0.00000000
Si      -1.25317341       1.42807914       1.45475550       0.00000000
Si       1.46113155      -1.41351588       1.54671531       0.00000000
Si       2.70011637      -2.67942970      -0.03128211       0.00000000
Si       2.68855047       2.72287350      -0.01330862       0.00000000
Si      -2.74463694      -2.68879808      -0.00956986       0.00000000
Si       2.69680950       0.01238040      -2.74750943       0.00000000
Si      -2.73878883       2.70979263      -0.01094188       0.00000000
Si      -0.01798416      -2.70180238      -2.74726933       0.00000000
