10
Lattice="16.28999089631971 0.0 0.0 0.0 16.28999089631971 0.0 0.0 0.0 34.3005442915855" Properties=species:S:1:pos:R:3:initial_magmoms:R:1 pbc="T T T"
Si       1.70593767       0.88277139      -1.48593471       0.00000000
Si      -0.87355125      -1.80040338      -1.44714077       0.00000000
Si       0.68509224       0.06190200       2.42261450       0.00000000
Si      -1.99959750       1.64121750      -0.13198857       0.00000000
Si       2.02277817      -1.97288190       2.05604437       0.00000000
Si       0.35782614       2.22480675      -2.91599380       0.00000000
Si      -2.75745717      -1.64126637       1.91602947       0.00000000
Si      -2.35916667      -0.51868989      -2.91283815       0.00000000
Si      -2.11921497      -3.19582107       0.11497549       0.00000000
Si      -1.10169270       3.47784984      -1.43767382       0.00000000
