10
Lattice="16.28999089631971 0.0 0.0 0.0 16.28999089631971 0.0 0.0 0.0 34.3005442915855" Properties=species:S:1:pos:R:3:initial_magmoms:R:1 pbc="T T T"
Si      -1.35637056      -1.35487188      -1.35703319       0.00000000
Si      -1.35695700       1.35710361       1.35693029       0.00000000
Si       1.35749457      -1.35795069       1.35706749       0.00000000
Si       1.35886293       1.35894438      -1.35751340       0.00000000
Si      -2.71409319       0.00081450       2.71488960       0.00000000
Si      -2.71665072      -0.00153126      -2.71262576       0.00000000
Si      -2.71471221      -2.71464705      -0.00013720       0.00000000
Si      -2.71469592       2.71482624      -0.00041161       0.00000000
Si       2.71492398      -0.00043983       2.71464949       0.00000000
Si       2.71521720       2.71492398      -0.00013720       0.00000000
