10
Lattice="16.28999089631971 0.0 0.0 0.0 16.28999089631971 0.0 0.0 0.0 34.3005442915855" Properties=species:S:1:pos:R:3:initial_magmoms:R:1 pbc="T T T"
Si      -1.35749457       1.35795069      -1.35706749       0.00000000
Si       1.35742941       1.35751086       1.35758200       0.00000000
Si       1.35796698      -1.35739683      -1.35751340       0.00000000
Si      -1.35752715      -1.35827649       1.35713609       0.00000000
Si      -2.71386513       0.00307881      -2.71410068       0.00000000
Si       0.00192222      -2.71350675      -2.71530120       0.00000000
Si      -2.71446786      -2.71476108      -0.00003430       0.00000000
Si      -2.71445157       2.71505430      -0.00013720       0.00000000
Si       2.71533123      -2.71502172      -0.00003430       0.00000000
Si       2.71524978       2.71534752       0.00051451       0.00000000
