10
Lattice="16.28999089631971 0.0 0.0 0.0 16.28999089631971 0.0 0.0 0.0 34.3005442915855" Properties=species:S:1:pos:R:3:initial_magmoms:R:1 pbc="T T T"
Si       1.83247839       1.34851878      -0.12138969       0.00000000
Si      -1.72359603       0.54226152      -1.51910335       0.00000000
Si       0.47280096      -1.97180676       1.28177776       0.00000000
Si      -0.06206490       2.24362170       1.17650933       0.00000000
Si      -2.33352621       1.73602530       1.87744134       0.00000000
Si       3.26844189       0.27034884       1.30215229       0.00000000
Si      -0.66072240      -0.05462037      -3.50616930       0.00000000
Si      -3.07055097      -1.36200690      -1.20665952       0.00000000
Si      -0.18598293       3.69933750      -0.70110352       0.00000000
Si      -1.49793066      -2.40065730       2.49135283       0.00000000
