10
Lattice="16.28999089631971 0.0 0.0 0.0 16.28999089631971 0.0 0.0 0.0 34.3005442915855" Properties=species:S:1:pos:R:3:initial_magmoms:R:1 pbc="T T T"
Si       1.62196272       1.08277512      -1.34566054       0.00000000
Si       1.18622151      -1.45044665       1.45218639       0.00000000
Si      -0.62372781      -1.90353115      -1.34909059       0.00000000
Si      -1.50832368       1.24212390       1.43446328       0.00000000
Si      -0.08413785       2.24676078      -2.71099447       0.00000000
Si      -1.40895468       0.34273671      -3.21586446       0.00000000
Si       3.24377883      -0.97320044      -1.32909336       0.00000000
Si       2.47779045      -2.78918587       0.07965620       0.00000000
Si      -2.60938107      -2.68856254      -0.04034432       0.00000000
Si       2.55109545      -0.11009597       2.80019510       0.00000000
