10
Lattice="16.28999089631971 0.0 0.0 0.0 16.28999089631971 0.0 0.0 0.0 34.3005442915855" Properties=species:S:1:pos:R:3:initial_magmoms:R:1 pbc="T T T"
Si       1.34731073       1.35568558       1.35590127       0.00000000
Si      -1.35785295       1.35493135      -1.35792501       0.00000000
Si       1.35909166      -1.35813949      -1.35689599       0.00000000
Si      -1.35969372      -1.35155833       1.39054484       0.00000000
Si       2.57705261      -0.12513310       2.67252840       0.00000000
Si      -0.03342708       2.71110969       2.71458089       0.00000000
Si       0.00031918       2.71246176      -2.71506110       0.00000000
Si       2.71791224       2.71055583       0.00174933       0.00000000
Si      -2.71464705      -0.00182711      -2.71533551       0.00000000
Si       2.71564793      -0.00209169      -2.71506110       0.00000000
