10
Lattice="16.28999089631971 0.0 0.0 0.0 16.28999089631971 0.0 0.0 0.0 34.3005442915855" Properties=species:S:1:pos:R:3:initial_magmoms:R:1 pbc="T T T"
Si      -1.38259746       1.22361146      -1.40649460       0.00000000
Si      -1.81441278      -1.01729537       1.06362617       0.00000000
Si       1.36707309       1.29334732       1.51557040       0.00000000
Si       1.32532182      -1.50648407      -1.37421777       0.00000000
Si      -2.62158228       2.48952528       0.17150282       0.00000000
Si       2.65158846       2.55618396      -0.05018172       0.00000000
Si      -0.03152115       2.55994695      -2.76616894       0.00000000
Si      -0.93252105      -2.18199779       2.94093031       0.00000000
Si       2.56235184      -2.78088335       0.27406150       0.00000000
Si       2.68501554      -0.15492574      -2.76476262       0.00000000
