10
Lattice="16.28999089631971 0.0 0.0 0.0 16.28999089631971 0.0 0.0 0.0 34.3005442915855" Properties=species:S:1:pos:R:3:initial_magmoms:R:1 pbc="T T T"
Si       1.28451537       1.26283664      -1.56575212       0.00000000
Si       1.63874698      -0.96496584       1.48891886       0.00000000
Si      -1.36707309      -1.29334732      -1.51557040       0.00000000
Si      -1.03094523       1.60601807       1.49389244       0.00000000
Si      -0.12794166      -0.14093456       3.38532841       0.00000000
Si       2.47976873       2.61710579      -0.08722633       0.00000000
Si       3.42141218       0.74794232       1.05419352       0.00000000
Si       0.64708767       3.42600203       1.32688300       0.00000000
Si       2.68209867      -2.68866843       0.09463525       0.00000000
Si      -0.05737338       2.63318402      -2.90659545       0.00000000
