10
Lattice="16.28999089631971 0.0 0.0 0.0 16.28999089631971 0.0 0.0 0.0 34.3005442915855" Properties=species:S:1:pos:R:3:initial_magmoms:R:1 pbc="T T T"
Si       1.86163979      -0.02641912       1.44690067       0.00000000
Si      -0.90999198      -1.39767615      -1.70326308       0.00000000
Si       0.94339855       1.90675753      -1.13322202       0.00000000
Si      -1.75303206      -0.31886535       1.65935836       0.00000000
Si      -2.07528084       0.50968966      -2.46816564       0.00000000
Si      -1.13546187       3.07325185       0.97029434       0.00000000
Si      -2.52470565       2.16651787      -0.80801837       0.00000000
Si       1.18621892       3.29642485       0.70748342       0.00000000
Si      -1.97768745      -2.67235236       1.43688490       0.00000000
Si       1.55129737      -2.04349320       2.60931246       0.00000000
