10
Lattice="16.28999089631971 0.0 0.0 0.0 16.28999089631971 0.0 0.0 0.0 34.3005442915855" Properties=species:S:1:pos:R:3:initial_magmoms:R:1 pbc="T T T"
Si       0.95153148      -0.52562943       2.04932146       0.00000000
Si       1.93490991       0.70077951      -1.25835047       0.00000000
Si      -0.85467114      -1.98980721      -1.24696268       0.00000000
Si      -1.72341684       1.81931607       0.07463803       0.00000000
Si       1.69429032       2.49233742       1.11003483       0.00000000
Si      -2.07157649      -0.61004421      -2.65997440       0.00000000
Si       0.67867398       2.10872421      -2.66251264       0.00000000
Si      -3.41279477       0.73236582      -1.24377273       0.00000000
Si      -0.61142886       3.45654252      -1.26695991       0.00000000
Si      -2.24647245      -3.32876376       0.18072967       0.00000000
