10
Lattice="16.28999089631971 0.0 0.0 0.0 16.28999089631971 0.0 0.0 0.0 34.3005442915855" Properties=species:S:1:pos:R:3:initial_magmoms:R:1 pbc="T T T"
Si      -1.35650088      -1.35715248       1.35689599       0.00000000
Si       1.35827649       1.35586557       1.35713609       0.00000000
Si       1.35754344      -1.35710361      -1.35741050       0.00000000
Si      -1.35736425       1.35762489      -1.35747910       0.00000000
Si      -0.00211770      -2.71262709       2.71344897       0.00000000
Si       2.71261080       0.00384444       2.71348327       0.00000000
Si       0.00003258      -2.71500543      -2.71344897       0.00000000
Si      -2.71340901       0.00151497      -2.71526690       0.00000000
Si      -2.71484253      -2.71458189       0.00000000       0.00000000
Si       2.71473817      -2.71503801      -0.00020580       0.00000000
