10
Lattice="16.28999089631971 0.0 0.0 0.0 16.28999089631971 0.0 0.0 0.0 34.3005442915855" Properties=species:S:1:pos:R:3:initial_magmoms:R:1 pbc="T T T"
Si       1.34121827      -1.34241003      -1.41620166       0.00000000
Si      -1.35125550       1.39302306      -1.38509105       0.00000000
Si       1.68937793       1.08695025       1.31841076       0.00000000
Si      -1.40080968      -1.27402461       1.59212925       0.00000000
Si       3.41279477      -0.73236582       1.24377273       0.00000000
Si       2.55812363      -2.72217303      -0.00318995       0.00000000
Si       0.00268785      -2.69516421      -2.76997630       0.00000000
Si      -2.71272483       0.01778868      -2.76297899       0.00000000
Si      -2.79849168      -2.67968871       0.11380927       0.00000000
Si       2.72338568       0.01562211      -2.76534573       0.00000000
