10
Lattice="16.28999089631971 0.0 0.0 0.0 16.28999089631971 0.0 0.0 0.0 34.3005442915855" Properties=species:S:1:pos:R:3:initial_magmoms:R:1 pbc="T T T"
Si      -1.21690535       1.37976300      -1.41301171       0.00000000
Si      -1.39180131      -1.33895655       1.42769235       0.00000000
Si       1.52195841      -1.32893820      -1.37665311       0.00000000
Si       0.85467114       1.98980721       1.24696268       0.00000000
Si      -2.58705467      -2.69322570      -0.05083344       0.00000000
Si      -2.55812363       2.72217303       0.00318995       0.00000000
Si      -2.55543578       0.02700882      -2.76678635       0.00000000
Si       0.16428465      -2.69377956      -2.76366500       0.00000000
Si       2.78958105       2.69058672      -0.01138779       0.00000000
Si       0.16526205       2.73779514      -2.76215577       0.00000000
