10
Lattice="16.28999089631971 0.0 0.0 0.0 16.28999089631971 0.0 0.0 0.0 34.3005442915855" Properties=species:S:1:pos:R:3:initial_magmoms:R:1 pbc="T T T"
Si      -1.23764350       1.26040617      -1.53628794       0.00000000
Si      -1.75850943      -1.05104709       1.15479707       0.00000000
Si       1.80244289      -1.32177060      -0.78513990       0.00000000
Si       1.38209573       1.88025696      -0.59298814       0.00000000
Si       0.78492062       1.54243494       1.79433108       0.00000000
Si      -0.40707570      -2.38316184       2.62965270       0.00000000
Si      -1.30297587       2.68780113       2.11195429       0.00000000
Si       3.22584680      -1.05103080       1.38464515       0.00000000
Si      -2.98763880       0.96596442       1.96086031       0.00000000
Si      -0.26619489       3.10062231      -2.51145296       0.00000000
