10
Lattice="16.28999089631971 0.0 0.0 0.0 16.28999089631971 0.0 0.0 0.0 34.3005442915855" Properties=species:S:1:pos:R:3:initial_magmoms:R:1 pbc="T T T"
Si      -1.35552348       1.31413059      -1.40531467       0.00000000
Si      -1.36363590      -1.34306163       1.37637871       0.00000000
Si       1.35141840       1.37389860       1.37421777       0.00000000
Si       1.27348704      -1.34980569      -1.58025783       0.00000000
Si       2.71179630      -2.68785000      -0.01805582       0.00000000
Si      -2.71432125      -2.69617419       0.01056457       0.00000000
Si      -0.00597843      -2.69905752       2.73516123       0.00000000
Si      -2.71293660       2.72697858       0.00853398       0.00000000
Si       2.71537375       2.72852613      -0.01203264       0.00000000
Si       2.70926927       0.01555695       2.73581294       0.00000000
