10
Lattice="16.28999089631971 0.0 0.0 0.0 16.28999089631971 0.0 0.0 0.0 34.3005442915855" Properties=species:S:1:pos:R:3:initial_magmoms:R:1 pbc="T T T"
Si      -0.57370122       0.81480951       2.16422835       0.00000000
Si       2.08789649      -1.14536619      -0.31762322       0.00000000
Si      -1.68466293      -1.72183671      -0.15109398       0.00000000
Si      -0.38646396       2.00997423      -1.33408612       0.00000000
Si      -2.71339272       1.76303412       1.61535074       0.00000000
Si       1.30297587      -2.68780113      -2.11195429       0.00000000
Si      -1.67669712       3.36435741       0.18326791       0.00000000
Si       0.68683105       2.80790730       2.46555880       0.00000000
Si       2.56263596      -2.23915824       1.81583753       0.00000000
Si      -3.62791332      -0.63214974      -1.20045112       0.00000000
