10
Lattice="16.28999089631971 0.0 0.0 0.0 16.28999089631971 0.0 0.0 0.0 34.3005442915855" Properties=species:S:1:pos:R:3:initial_magmoms:R:1 pbc="T T T"
Si      -1.35631956      -1.35689184      -1.35713609       0.00000000
Si      -1.35734501       1.35728280       1.35802791       0.00000000
Si       1.35822273      -1.35817875       1.35744480       0.00000000
Si       1.35882546       1.35863487      -1.35819941       0.00000000
Si       0.00005864      -2.71402803       2.71471810       0.00000000
Si       2.71511457      -0.00130320       2.71437509       0.00000000
Si      -2.71491976       2.71507059       0.00044591       0.00000000
Si      -2.71470799      -2.71529865       0.00024010       0.00000000
Si       2.71539150       2.71477737       0.00030871       0.00000000
Si      -2.71412155      -0.00027693       2.71605582       0.00000000
