10
Lattice="16.28999089631971 0.0 0.0 0.0 16.28999089631971 0.0 0.0 0.0 34.3005442915855" Properties=species:S:1:pos:R:3:initial_magmoms:R:1 pbc="T T T"
Si      -1.08425426      -1.40473557       1.70031464       0.00000000
Si      -2.16656348       1.18825776      -0.82273332       0.00000000
Si       1.57812633       1.36523232       1.64255249       0.00000000
Si       0.26355591      -1.22624604      -2.80266474       0.00000000
Si       1.50918705       2.00914344      -2.24075291       0.00000000
Si      -2.57185610      -2.61428436       0.21190888       0.00000000
Si      -3.75543863      -0.71949672      -0.90649529       0.00000000
Si      -2.40005682       0.01024641       3.24540067       0.00000000
Si       0.61869420       0.68773122      -4.05003903       0.00000000
Si       3.27547917       2.60389134       0.45921594       0.00000000
