10
Lattice="16.28999089631971 0.0 0.0 0.0 16.28999089631971 0.0 0.0 0.0 34.3005442915855" Properties=species:S:1:pos:R:3:initial_magmoms:R:1 pbc="T T T"
Si      -1.38290697       1.32102126      -1.52037248       0.00000000
Si       1.31905017      -1.38481616      -1.52905052       0.00000000
Si      -1.57027455      -1.51061568       1.17777845       0.00000000
Si       1.56568077       1.33566597       1.49814571       0.00000000
Si       2.65046445      -2.81086298      -0.20281923       0.00000000
Si       2.81308752       2.73329910      -0.06952724       0.00000000
Si      -2.90458845       2.65233780      -0.14399377       0.00000000
Si      -0.02668302       2.67493203      -2.90899649       0.00000000
Si       2.68794774      -0.04085532      -2.90704135       0.00000000
Si      -2.74058073      -0.04339656      -2.90755586       0.00000000
