10
Lattice="16.28999089631971 0.0 0.0 0.0 16.28999089631971 0.0 0.0 0.0 34.3005442915855" Properties=species:S:1:pos:R:3:initial_magmoms:R:1 pbc="T T T"
Si       1.24950816      -0.03275919      -2.02445356       0.00000000
Si       0.57445056      -2.18092964       0.85024237       0.00000000
Si       1.33905429       1.91697462       0.61984548       0.00000000
Si      -1.53878598       1.08475110       1.57662540       0.00000000
Si      -3.06423045      -0.77776605      -1.15627199       0.00000000
Si       3.20111532       1.05279012      -0.45451677       0.00000000
Si      -0.32876478       2.75169051      -2.06582004       0.00000000
Si      -3.57661611       0.84512520       0.39792084       0.00000000
Si       1.81739385      -2.29864932      -2.34176807       0.00000000
Si      -1.45179738      -3.37348700       1.19606065       0.00000000
