10
Lattice="16.28999089631971 0.0 0.0 0.0 16.28999089631971 0.0 0.0 0.0 34.3005442915855" Properties=species:S:1:pos:R:3:initial_magmoms:R:1 pbc="T T T"
Si      -1.35752715      -1.35547461      -1.35816511       0.00000000
Si      -1.35694071       1.35702216       1.35806221       0.00000000
Si       1.35785295      -1.35798327       1.35771920       0.00000000
Si       1.36019871       1.35850455      -1.35669019       0.00000000
Si      -2.71588346       0.00144981      -2.71217985       0.00000000
Si       2.71393029      -0.00026064       2.71444369       0.00000000
Si      -2.71455257       2.71414206       0.00041161       0.00000000
Si       0.00118917       2.71453302       2.71451229       0.00000000
Si      -2.71458515      -2.71530028       0.00034301       0.00000000
Si       0.00013032      -2.71632329       2.71389488       0.00000000
