10
Lattice="16.28999089631971 0.0 0.0 0.0 16.28999089631971 0.0 0.0 0.0 34.3005442915855" Properties=species:S:1:pos:R:3:initial_magmoms:R:1 pbc="T T T"
Si       1.35622395       1.35391077      -1.38862401       0.00000000
Si      -1.35767376      -1.36441782      -1.38718339       0.00000000
Si       1.38290697      -1.32102126       1.52037248       0.00000000
Si      -1.52168148       1.33131654       1.37637871       0.00000000
Si       2.70643689       2.69179218      -0.01272551       0.00000000
Si       2.70195714      -2.70583742      -0.00867804       0.00000000
Si      -2.72843816      -2.71934834      -0.03292854       0.00000000
Si      -2.73907716       2.70966231      -0.03694171       0.00000000
Si      -0.00188964       2.71018359      -2.74699493       0.00000000
Si       2.71085148      -0.00461007      -2.74706353       0.00000000
