10
Lattice="16.28999089631971 0.0 0.0 0.0 16.28999089631971 0.0 0.0 0.0 34.3005442915855" Properties=species:S:1:pos:R:3:initial_magmoms:R:1 pbc="T T T"
Si       1.53955161      -0.24221601      -1.76009911       0.00000000
Si      -1.00693377       2.12196798      -0.26991113       0.00000000
Si      -1.81061721      -1.37031480      -0.69201387       0.00000000
Si       0.70565022       0.09420507       2.30115620       0.00000000
Si      -1.53924210       1.99559016      -2.58725720       0.00000000
Si       0.57415734       1.22016987      -3.37119658       0.00000000
Si       2.24658648       1.93453524       2.16477716       0.00000000
Si      -2.78334198       0.03803715      -2.45979631       0.00000000
Si      -2.82393666       2.20995027       1.31655853       0.00000000
Si      -3.12067530      -1.83941793       1.24836901       0.00000000
