10
Lattice="16.28999089631971 0.0 0.0 0.0 16.28999089631971 0.0 0.0 0.0 34.3005442915855" Properties=species:S:1:pos:R:3:initial_magmoms:R:1 pbc="T T T"
Si       0.99318501      -1.51321068       1.55206620       0.00000000
Si      -0.96557346      -1.85673420      -1.20445541       0.00000000
Si       1.52966358       1.41203349      -1.41008729       0.00000000
Si      -1.71595602       1.17416691       1.50170611       0.00000000
Si       2.49851133      -0.43303707      -2.59167310       0.00000000
Si       2.35559916      -2.84418513       0.19167841       0.00000000
Si      -1.00105308      -0.90192843      -3.47734794       0.00000000
Si       2.34149202      -0.18314847       2.90672236       0.00000000
Si       2.65988007       2.77772193       0.14247768       0.00000000
Si      -0.37136313       2.53117278       2.90017095       0.00000000
