10
Lattice="16.28999089631971 0.0 0.0 0.0 16.28999089631971 0.0 0.0 0.0 34.3005442915855" Properties=species:S:1:pos:R:3:initial_magmoms:R:1 pbc="T T T"
Si      -0.59176683       2.22024555       0.44865137       0.00000000
Si       0.57612843       0.40521375      -2.25231220       0.00000000
Si      -2.01530106      -1.28142027       0.49337930       0.00000000
Si       2.11426281      -0.46017621       1.14800556       0.00000000
Si       2.44480320      -2.65584015       0.38433781       0.00000000
Si       1.38323277       3.40405614      -0.15476414       0.00000000
Si       2.01663684       2.26313712      -2.12879587       0.00000000
Si      -1.23281091       1.82117313      -2.99615422       0.00000000
Si      -1.21041216       2.30148378       2.66107201       0.00000000
Si      -2.36255499       2.85702165      -0.95139473       0.00000000
