10
Lattice="16.28999089631971 0.0 0.0 0.0 16.28999089631971 0.0 0.0 0.0 34.3005442915855" Properties=species:S:1:pos:R:3:initial_magmoms:R:1 pbc="T T T"
Si       1.13021649       1.36568844       1.55256497       0.00000000
Si       0.96884775      -1.84507056      -1.18158581       0.00000000
Si       0.45364392       1.17001296      -2.08979613       0.00000000
Si      -1.52966358      -1.41203349       1.41008729       0.00000000
Si      -1.35244467      -0.01412343      -3.14748830       0.00000000
Si       2.17958571      -0.23372892       2.94869051       0.00000000
Si       3.07079532       2.05664508       0.08976457       0.00000000
Si      -0.54781641       2.49204420       2.91861921       0.00000000
Si       2.42044965      -3.06265032       0.17256613       0.00000000
Si       0.81762768       3.58821459      -1.53395550       0.00000000
