10
Lattice="16.28999089631971 0.0 0.0 0.0 16.28999089631971 0.0 0.0 0.0 34.3005442915855" Properties=species:S:1:pos:R:3:initial_magmoms:R:1 pbc="T T T"
Si      -1.35728280      -1.35573525      -1.35905693       0.00000000
Si       1.36249560      -1.35881406       1.35326013       0.00000000
Si       1.35821133       1.35912208      -1.35902262       0.00000000
Si      -1.36008468       1.36194174       1.35669019       0.00000000
Si       2.70712107      -0.01203831       2.70689757       0.00000000
Si       2.71590138      -2.71050939      -0.00301845       0.00000000
Si      -2.71445157      -2.71438641      -0.00270974       0.00000000
Si       0.00035838      -2.71290402      -2.71667323       0.00000000
Si      -2.71433754       0.00187335      -2.71670753       0.00000000
Si      -2.71502172       2.71605681      -0.00301845       0.00000000
