10
Lattice="16.28999089631971 0.0 0.0 0.0 16.28999089631971 0.0 0.0 0.0 34.3005442915855" Properties=species:S:1:pos:R:3:initial_magmoms:R:1 pbc="T T T"
Si       0.02865411      -2.28032307       0.48295193       0.00000000
Si      -2.21004801       0.33963021       0.82619767       0.00000000
Si       1.66228047       1.43399960       1.05398771       0.00000000
Si       1.24467003       0.79996932      -2.15414399       0.00000000
Si      -1.26416916      -1.71771534      -2.12728665       0.00000000
Si       3.10495545       1.61247609      -0.83621344       0.00000000
Si      -2.97606897       2.10021661      -0.77354631       0.00000000
Si       2.29456053      -2.87357229      -0.62523067       0.00000000
Si       2.25228798       0.53706501       3.13781555       0.00000000
Si      -2.44421676      -3.18409227      -0.59720711       0.00000000
