10
Lattice="16.28999089631971 0.0 0.0 0.0 16.28999089631971 0.0 0.0 0.0 34.3005442915855" Properties=species:S:1:pos:R:3:initial_magmoms:R:1 pbc="T T T"
Si       0.22126707      -2.27820537       0.27608524       0.00000000
Si      -1.59721821       0.36817029      -1.63020288       0.00000000
Si      -0.88117497       0.48584925       2.14917040       0.00000000
Si       2.02624794       1.19255736      -0.34581828       0.00000000
Si       2.85562071       1.20529777       1.82245754       0.00000000
Si       0.92483217       1.71561134       3.04712486       0.00000000
Si       1.93753260      -2.51445924       1.86818019       0.00000000
Si      -3.67162754      -0.47723184      -0.82280192       0.00000000
Si      -0.60313725      -0.01953171      -3.76561876       0.00000000
Si      -1.61243307       2.59572095      -2.35233264       0.00000000
