10
Lattice="16.28999089631971 0.0 0.0 0.0 16.28999089631971 0.0 0.0 0.0 34.3005442915855" Properties=species:S:1:pos:R:3:initial_magmoms:R:1 pbc="T T T"
Si      -2.03186799       0.93095721       0.61336268       0.00000000
Si      -0.02057427      -2.30319423       0.35631425       0.00000000
Si      -0.39910500       0.15442920      -2.31226958       0.00000000
Si       1.69661979       1.35562474       0.96953973       0.00000000
Si       2.36791440       2.30259869      -1.03989018       0.00000000
Si      -3.43844433      -0.81731817      -0.12674058       0.00000000
Si      -2.18813796      -2.79865458      -0.39726913       0.00000000
Si      -1.09542105       2.42515487      -2.41685200       0.00000000
Si      -1.89591165       1.32664131       2.92316262       0.00000000
Si       1.48810779      -0.62548713      -3.40796678       0.00000000
