10
Lattice="16.28999089631971 0.0 0.0 0.0 16.28999089631971 0.0 0.0 0.0 34.3005442915855" Properties=species:S:1:pos:R:3:initial_magmoms:R:1 pbc="T T T"
Si      -0.76242087       1.58184045      -1.61802618       0.00000000
Si      -1.10853450       1.48271580       1.67115775       0.00000000
Si      -0.36398376      -2.41820163      -0.55584063       0.00000000
Si       2.37776985      -0.57203964      -0.61874786       0.00000000
Si       2.25316764      -1.53156951       1.62372007       0.00000000
Si      -2.87482662       0.88796790      -1.02881110       0.00000000
Si       1.73258811      -2.44481949      -1.94816910       0.00000000
Si      -0.80446536       3.69079991       0.02476501       0.00000000
Si       0.31258881      -2.22252615       3.08652046       0.00000000
Si      -0.81762768      -3.58821459       1.53395550       0.00000000
