10
Lattice="16.28999089631971 0.0 0.0 0.0 16.28999089631971 0.0 0.0 0.0 34.3005442915855" Properties=species:S:1:pos:R:3:initial_magmoms:R:1 pbc="T T T"
Si      -1.44267498      -0.17847650       1.89020115       0.00000000
Si       1.01511135       1.88820322      -1.08904289       0.00000000
Si      -1.86028542      -0.81250677      -1.31793055       0.00000000
Si       1.82120571      -1.61835678      -0.19489580       0.00000000
Si      -0.47446254      -2.12939037      -2.67318011       0.00000000
Si       2.25276039       0.62327495      -2.66628570       0.00000000
Si      -3.10495545      -1.61247609       0.83621344       0.00000000
Si      -2.01056067       2.08741363       2.20751566       0.00000000
Si       0.85682142      -3.45627603      -1.28345848       0.00000000
Si       3.63602574      -0.60105441      -1.25979109       0.00000000
