10
Lattice="16.28999089631971 0.0 0.0 0.0 16.28999089631971 0.0 0.0 0.0 34.3005442915855" Properties=species:S:1:pos:R:3:initial_magmoms:R:1 pbc="T T T"
Si      -1.35389448      -1.34785089       1.37186819       0.00000000
Si       1.36112724       1.36288656       1.36984445       0.00000000
Si      -1.34110683       1.41643179      -1.33833939       0.00000000
Si       1.42110702      -1.36440153      -1.39435221       0.00000000
Si       0.25340724       2.61000009      -2.76753894       0.00000000
Si      -2.70985779      -2.70865233      -0.01369965       0.00000000
Si       0.00482184      -2.70879894       2.72996470       0.00000000
Si      -2.70855459       0.00764001       2.73195413       0.00000000
Si       2.73022029      -2.71568961       0.00632845       0.00000000
Si      -2.70352098       2.74740624       0.02204840       0.00000000
