10
Lattice="16.28999089631971 0.0 0.0 0.0 16.28999089631971 0.0 0.0 0.0 34.3005442915855" Properties=species:S:1:pos:R:3:initial_magmoms:R:1 pbc="T T T"
Si      -1.35633798      -1.35483930      -1.35706749       0.00000000
Si      -1.35694071       1.35708732       1.35696459       0.00000000
Si       1.35747828      -1.35796698       1.35706749       0.00000000
Si       1.35889551       1.35896067      -1.35754770       0.00000000
Si      -2.71422351       0.00109143       2.71471810       0.00000000
Si      -2.71665072      -0.00153126      -2.71266006       0.00000000
Si      -2.71469592      -2.71464705      -0.00017150       0.00000000
Si       2.71524978      -0.00019548       2.71410068       0.00000000
Si      -2.71467963       2.71484253      -0.00048021       0.00000000
Si       2.71523349       2.71492398      -0.00017150       0.00000000
