10
Lattice="16.28999089631971 0.0 0.0 0.0 16.28999089631971 0.0 0.0 0.0 34.3005442915855" Properties=species:S:1:pos:R:3:initial_magmoms:R:1 pbc="T T T"
Si       1.91831040      -0.09011628       1.29985415       0.00000000
Si      -1.41630147       1.35368271       1.32880383       0.00000000
Si       0.73443465       0.78218064      -2.13692510       0.00000000
Si      -0.51766362      -2.33310267       0.41747216       0.00000000
Si       0.78187113      -0.83088774       3.30407038       0.00000000
Si       3.37139469      -1.05270867      -0.38094206       0.00000000
Si       3.11534847       0.89383230      -1.81902748       0.00000000
Si      -3.58386516       0.85822236       0.57522045       0.00000000
Si      -1.06194510      -3.10132278      -1.79234164       0.00000000
Si      -0.79662987       0.95685831       3.56550927       0.00000000
