10
Lattice="16.28999089631971 0.0 0.0 0.0 16.28999089631971 0.0 0.0 0.0 34.3005442915855" Properties=species:S:1:pos:R:3:initial_magmoms:R:1 pbc="T T T"
Si      -1.65434724      -0.21224241      -1.68439777       0.00000000
Si       0.45312264      -2.39489064       0.15095678       0.00000000
Si      -1.13290434       0.45036963       2.17259769       0.00000000
Si       1.96626816       1.30658832      -1.09902435       0.00000000
Si       0.58859028       2.47337586      -2.71485530       0.00000000
Si      -0.51790797       0.52852905      -3.68861399       0.00000000
Si      -3.23284824       1.57550364      -1.42295888       0.00000000
Si       0.46934748       1.49503104       3.58966514       0.00000000
Si       3.18510225       2.17965087       0.83065675       0.00000000
Si       2.01640878      -2.80981323       1.94120609       0.00000000
