10
Lattice="16.28999089631971 0.0 0.0 0.0 16.28999089631971 0.0 0.0 0.0 34.3005442915855" Properties=species:S:1:pos:R:3:initial_magmoms:R:1 pbc="T T T"
Si      -1.35687555      -1.35487188       1.35669019       0.00000000
Si       1.35749457      -1.35718506      -1.35665589       0.00000000
Si      -1.35757602       1.35767376      -1.35696459       0.00000000
Si       1.35894438       1.35817875       1.35761630       0.00000000
Si      -2.71028133      -0.00317655       2.71296877       0.00000000
Si       0.00115659      -2.71314837      -2.71403208       0.00000000
Si       0.00131949       2.71502795      -2.71344897       0.00000000
Si       2.71482624       0.00200367      -2.71375768       0.00000000
Si      -2.71469592      -0.00078192      -2.71416929       0.00000000
Si      -2.71456560       2.71475959       0.00068601       0.00000000
