10
Lattice="16.28999089631971 0.0 0.0 0.0 16.28999089631971 0.0 0.0 0.0 34.3005442915855" Properties=species:S:1:pos:R:3:initial_magmoms:R:1 pbc="T T T"
Si       1.81482003       1.01730237      -1.06489529       0.00000000
Si      -0.96438429      -1.83791925      -1.08856268       0.00000000
Si       0.88145190      -1.16149329       1.87541761       0.00000000
Si      -1.82120571       1.61835678       0.19489580       0.00000000
Si       0.43155468       2.24163173      -2.47138990       0.00000000
Si      -2.29566825      -0.51103359      -2.47828431       0.00000000
Si      -1.11855285      -2.40077133       2.25327261       0.00000000
Si      -0.80609436       3.50656001      -0.89414709       0.00000000
Si      -2.63160063      -2.86769160       0.40587857       0.00000000
Si      -3.68149113       0.80585001      -1.12303475       0.00000000
