10
Lattice="16.28999089631971 0.0 0.0 0.0 16.28999089631971 0.0 0.0 0.0 34.3005442915855" Properties=species:S:1:pos:R:3:initial_magmoms:R:1 pbc="T T T"
Si       1.06447005      -0.59347728      -1.98730605       0.00000000
Si       1.72454085      -0.54253845       1.52304792       0.00000000
Si      -1.34750880      -1.92039552       0.31398736       0.00000000
Si      -0.49085028       2.35023975      -0.07165388       0.00000000
Si       1.66052115       1.69964973       2.69866543       0.00000000
Si       1.53647280       3.15646999       0.82074388       0.00000000
Si      -0.61080984       1.19387781       3.40090087       0.00000000
Si      -3.49537788      -1.24678773      -0.31559948       0.00000000
Si      -0.54330408      -3.60904950      -1.21835601       0.00000000
Si      -2.71448415      -0.46714833      -2.72651749       0.00000000
