10
Lattice="16.28999089631971 0.0 0.0 0.0 16.28999089631971 0.0 0.0 0.0 34.3005442915855" Properties=species:S:1:pos:R:3:initial_magmoms:R:1 pbc="T T T"
Si       1.29182958      -1.33877235      -1.37250275       0.00000000
Si       1.36493910       1.34020679       1.34794354       0.00000000
Si      -1.34956134      -1.37262297       1.35209391       0.00000000
Si      -1.18609119       1.45016918      -1.45216924       0.00000000
Si      -1.80985158      -0.45326424      -2.80144505       0.00000000
Si       2.05781796       0.47691335      -2.78120772       0.00000000
Si      -0.22128336      -2.50995819      -2.66257575       0.00000000
Si       0.43574121       2.53309091      -2.79801499       0.00000000
Si      -2.69438229       2.69239082      -0.01787059       0.00000000
Si       0.00970884       2.69910230       2.70874980       0.00000000
