10
Lattice="16.28999089631971 0.0 0.0 0.0 16.28999089631971 0.0 0.0 0.0 34.3005442915855" Properties=species:S:1:pos:R:3:initial_magmoms:R:1 pbc="T T T"
Si       1.35788553      -1.35489977       1.35782211       0.00000000
Si      -1.35677781      -1.35675137      -1.35741050       0.00000000
Si       1.35818624       1.35753367      -1.35713609       0.00000000
Si      -1.35870003       1.35997717       1.35651868       0.00000000
Si       2.70504965       0.00068092       2.71392918       0.00000000
Si      -2.71008585       0.02392675       2.71605582       0.00000000
Si      -2.71270854      -2.71415902       0.00017150       0.00000000
Si      -2.71305063       2.71541920      -0.00003430       0.00000000
Si      -2.71409319      -0.00005539      -2.71451229       0.00000000
Si       0.00091224      -2.71451740      -2.71430649       0.00000000
