10
Lattice="16.28999089631971 0.0 0.0 0.0 16.28999089631971 0.0 0.0 0.0 34.3005442915855" Properties=species:S:1:pos:R:3:initial_magmoms:R:1 pbc="T T T"
Si      -1.77419277      -1.60196579       0.05783075       0.00000000
Si       0.92015694       0.36312039       2.18422558       0.00000000
Si       1.76670819      -0.82376738      -1.89586074       0.00000000
Si      -0.90336195       1.74837312      -1.89181328       0.00000000
Si       0.12794166       0.14085311      -3.38508831       0.00000000
Si      -0.58280733       3.60237060       0.84509728       0.00000000
Si       3.03153546      -2.28228506       0.96425744       0.00000000
Si      -3.70030608      -0.82091989       1.22545623       0.00000000
Si       2.19648888      -1.44999638       3.02235985       0.00000000
Si      -1.68194250      -3.17237066       1.80486135       0.00000000
