10
Lattice="16.28999089631971 0.0 0.0 0.0 16.28999089631971 0.0 0.0 0.0 34.3005442915855" Properties=species:S:1:pos:R:3:initial_magmoms:R:1 pbc="T T T"
Si      -0.98565903      -0.95518044       1.89963381       0.00000000
Si      -1.51247763       1.53901404      -1.01611989       0.00000000
Si       0.44944110      -1.65686567      -1.66014727       0.00000000
Si       1.38935781       0.90681543       1.77841561       0.00000000
Si       2.53340451       1.20741480      -1.88238062       0.00000000
Si       2.52477081      -2.16655208       0.80805267       0.00000000
Si       0.85115250       3.09444840       1.24613947       0.00000000
Si       3.46822149      -0.25974405      -0.32520364       0.00000000
Si       1.30803813      -0.25202259      -3.29645565       0.00000000
Si      -1.38072411       3.26256120       0.54671668       0.00000000
