10
Lattice="16.28999089631971 0.0 0.0 0.0 16.28999089631971 0.0 0.0 0.0 34.3005442915855" Properties=species:S:1:pos:R:3:initial_magmoms:R:1 pbc="T T T"
Si      -1.43516529       1.73858250       0.78472829       0.00000000
Si      -1.33475373      -1.43952223      -1.36965580       0.00000000
Si       2.04136506       0.95660875      -1.18940634       0.00000000
Si      -0.64985697      -0.50762020       2.65146786       0.00000000
Si      -2.70622512       1.99904331      -1.28002843       0.00000000
Si       1.53619587       0.46882262      -3.44875015       0.00000000
Si      -2.78391213      -0.06457755      -2.61699579       0.00000000
Si      -0.11026701       3.64281834       1.28963258       0.00000000
Si       0.93871125      -2.56431415       2.79033716       0.00000000
Si      -0.05999607      -3.22234870      -2.28541224       0.00000000
