10
Lattice="16.28999089631971 0.0 0.0 0.0 16.28999089631971 0.0 0.0 0.0 34.3005442915855" Properties=species:S:1:pos:R:3:initial_magmoms:R:1 pbc="T T T"
Si       1.35685926       1.35620766       1.35802791       0.00000000
Si      -1.35764118       1.35599589      -1.35881682       0.00000000
Si      -1.35817875      -1.35870003       1.35813081       0.00000000
Si       1.35769005      -1.36231641      -1.36070335       0.00000000
Si      -2.71420722      -2.71479366       0.00034301       0.00000000
Si       2.71390412      -0.00110772       2.71536981       0.00000000
Si       2.71525661       2.71461447       0.00065171       0.00000000
Si      -0.00089595       2.71404432       2.71615872       0.00000000
Si      -2.71476108       2.71560816       0.00106332       0.00000000
Si      -2.71617831      -0.00131949       2.71567851       0.00000000
