10
Lattice="16.28999089631971 0.0 0.0 0.0 16.28999089631971 0.0 0.0 0.0 34.3005442915855" Properties=species:S:1:pos:R:3:initial_magmoms:R:1 pbc="T T T"
Si       0.96459606      -0.50399631       2.05299162       0.00000000
Si       1.92950163       0.70038855      -1.25444021       0.00000000
Si      -0.85300956      -1.98017982      -1.24212630       0.00000000
Si      -1.72794546       1.83168018       0.08551130       0.00000000
Si      -2.07040524      -0.60183405      -2.65544672       0.00000000
Si       0.68339808       2.11893804      -2.65551532       0.00000000
Si      -3.41088884       0.73982664      -1.23907355       0.00000000
Si       2.44108908       1.41973866       2.39675187       0.00000000
Si      -0.60360966       3.46768488      -1.25341119       0.00000000
Si       3.70037124       1.37002158       0.23224912       0.00000000
