10
Lattice="16.28999089631971 0.0 0.0 0.0 16.28999089631971 0.0 0.0 0.0 34.3005442915855" Properties=species:S:1:pos:R:3:initial_magmoms:R:1 pbc="T T T"
Si       1.35826765       1.35609363      -1.35658728       0.00000000
Si      -1.35751086      -1.35790182      -1.35600418       0.00000000
Si      -1.35754344       1.35710361       1.35741050       0.00000000
Si       1.35719255      -1.35793440       1.35720470       0.00000000
Si       2.71353186       0.00166158      -2.71248856       0.00000000
Si       0.00074934       2.71295289       2.71454659       0.00000000
Si      -2.71404432      -0.00004887       2.71430649       0.00000000
Si       2.71335104      -0.00079821       2.71526690       0.00000000
Si      -2.71093293      -0.00475668      -2.71780515       0.00000000
Si       2.71486275       2.71435383       0.00010290       0.00000000
