10
Lattice="16.28999089631971 0.0 0.0 0.0 16.28999089631971 0.0 0.0 0.0 34.3005442915855" Properties=species:S:1:pos:R:3:initial_magmoms:R:1 pbc="T T T"
Si       1.33838218       1.35324288       1.35339733       0.00000000
Si      -1.35428544       1.35197226      -1.35631288       0.00000000
Si       1.35831626      -1.36177884      -1.35559257       0.00000000
Si      -1.37371941      -1.34947989       1.37524679       0.00000000
Si       2.55577787      -0.02510289       2.76671775       0.00000000
Si       0.00214040       2.71134018      -2.71368908       0.00000000
Si      -2.71257822      -0.00387702      -2.71344897       0.00000000
Si      -2.71500543       2.71264338       0.00641421       0.00000000
Si       2.71743983      -0.00374670      -2.71310597       0.00000000
Si       2.72064896       2.71026504       0.00552239       0.00000000
