10
Lattice="16.28999089631971 0.0 0.0 0.0 16.28999089631971 0.0 0.0 0.0 34.3005442915855" Properties=species:S:1:pos:R:3:initial_magmoms:R:1 pbc="T T T"
Si      -1.27648440       1.33397181      -1.50541743       0.00000000
Si      -1.35643572      -1.28783853       1.54129582       0.00000000
Si       1.39621590       1.40480073       1.47921180       0.00000000
Si       1.42702029      -1.36440153      -1.50840158       0.00000000
Si       2.13135102      -0.57274011       2.72469956       0.00000000
Si      -2.50302366      -2.80251531       0.05313157       0.00000000
Si       0.45346473      -2.39060637       2.89133170       0.00000000
Si      -2.63767680       2.72194497      -0.07254569       0.00000000
Si       2.79863829       2.67998193      -0.11387787       0.00000000
Si       2.76915339      -2.73533535      -0.16759255       0.00000000
