10
Lattice="16.28999089631971 0.0 0.0 0.0 16.28999089631971 0.0 0.0 0.0 34.3005442915855" Properties=species:S:1:pos:R:3:initial_magmoms:R:1 pbc="T T T"
Si      -0.81164925       1.12425435       1.97272831       0.00000000
Si       0.73513512      -1.97754084       1.24548776       0.00000000
Si      -1.39621590      -1.40480073      -1.47921180       0.00000000
Si       1.40242239       1.27518120      -1.59308967       0.00000000
Si       1.46650857       1.71027081       2.69581848       0.00000000
Si      -2.47026447       2.64372039      -0.18968212       0.00000000
Si       2.56631098      -2.78736561      -0.16989069       0.00000000
Si      -2.75265162      -2.69263926       0.06208402       0.00000000
Si       3.08536577       2.36703474      -0.26850481       0.00000000
Si       0.05036868       2.66826942      -2.97776912       0.00000000
