10
Lattice="16.28999089631971 0.0 0.0 0.0 16.28999089631971 0.0 0.0 0.0 34.3005442915855" Properties=species:S:1:pos:R:3:initial_magmoms:R:1 pbc="T T T"
Si       0.81164925      -1.12425435      -1.97272831       0.00000000
Si      -0.83108322       2.04985215       0.97797767       0.00000000
Si       2.27815782       0.58601646       0.72309018       0.00000000
Si      -1.39567833      -1.51715286       1.45259456       0.00000000
Si      -1.65861522       1.51946604      -2.16241042       0.00000000
Si       1.54678437      -3.10179519      -0.72724055       0.00000000
Si       1.03615803       3.48597855       0.57827320       0.00000000
Si      -1.42416954       1.37616291       3.17887332       0.00000000
Si       0.18945270      -3.06566397       2.17630215       0.00000000
Si      -2.77364943       2.71805166      -0.30702434       0.00000000
