10
Lattice="16.28999089631971 0.0 0.0 0.0 16.28999089631971 0.0 0.0 0.0 34.3005442915855" Properties=species:S:1:pos:R:3:initial_magmoms:R:1 pbc="T T T"
Si      -0.57958191      -1.08230760       1.99039310       0.00000000
Si      -1.91221794       1.22922711      -0.60711997       0.00000000
Si       0.69673959      -1.66224789      -1.54993956       0.00000000
Si       1.37297007       1.80654471       0.80644055       0.00000000
Si      -1.18532556       2.03308974      -2.71595292       0.00000000
Si      -0.44782839       0.64123956       3.55322967       0.00000000
Si       2.24093385      -2.87334423      -0.28994266       0.00000000
Si       2.92587948       0.66810177       2.14700947       0.00000000
Si      -0.19971540       2.75612139       2.44641909       0.00000000
Si       2.35043523       2.61693963      -1.22840608       0.00000000
