10
Lattice="16.28999089631971 0.0 0.0 0.0 16.28999089631971 0.0 0.0 0.0 34.3005442915855" Properties=species:S:1:pos:R:3:initial_magmoms:R:1 pbc="T T T"
Si      -1.23943866       1.23652503      -1.54692111       0.00000000
Si      -1.76402685      -1.08097182       1.14364939       0.00000000
Si       1.78949723      -1.34500014      -0.78675202       0.00000000
Si       0.78055979       1.50372990       1.77248162       0.00000000
Si      -0.41932741      -2.41437348       2.62546803       0.00000000
Si      -1.31105082       2.65740399       2.10680921       0.00000000
Si       3.21405772      -1.08406692       1.38196970       0.00000000
Si      -3.00169218       0.93540438       1.95530362       0.00000000
Si       3.07196005      -0.44238753      -2.54376409       0.00000000
Si       1.74952157      -1.70347788       3.20302092       0.00000000
