10
Lattice="16.28999089631971 0.0 0.0 0.0 16.28999089631971 0.0 0.0 0.0 34.3005442915855" Properties=species:S:1:pos:R:3:initial_magmoms:R:1 pbc="T T T"
Si      -1.56328614       0.41492259      -1.79024931       0.00000000
Si       1.08209583       1.64079396       1.47341985       0.00000000
Si      -1.49214771      -1.03878072       1.66911142       0.00000000
Si       1.99031220      -0.42246486      -1.54263354       0.00000000
Si       2.73978482      -2.12444406       0.07933720       0.00000000
Si      -2.71995759      -2.52398889       0.27951529       0.00000000
Si      -3.55135032      -0.74398059      -1.01639430       0.00000000
Si       2.35227600       3.09467646       0.00785483       0.00000000
Si      -0.18520101      -2.42356104       3.05244628       0.00000000
Si       2.52043767       0.30292884       3.03527199       0.00000000
