10
Lattice="16.28999089631971 0.0 0.0 0.0 16.28999089631971 0.0 0.0 0.0 34.3005442915855" Properties=species:S:1:pos:R:3:initial_magmoms:R:1 pbc="T T T"
Si       1.28246283       0.90261261      -1.75701206       0.00000000
Si      -1.78949723       1.34500014       0.78675202       0.00000000
Si       0.04351059      -2.25896688       0.83686515       0.00000000
Si       1.42456050       0.26093322       2.16872173       0.00000000
Si       2.08134072      -2.01934098       2.01556971       0.00000000
Si       3.29136192      -0.35240157      -1.62687572       0.00000000
Si      -1.00893744       2.84873004       2.55923364       0.00000000
Si       0.55589625      -3.88185813      -0.71732768       0.00000000
Si      -0.03997566      -0.35847774       3.98977294       0.00000000
Si      -3.02893588       2.58152517      -0.76016909       0.00000000
