10
Lattice="16.28999089631971 0.0 0.0 0.0 16.28999089631971 0.0 0.0 0.0 34.3005442915855" Properties=species:S:1:pos:R:3:initial_magmoms:R:1 pbc="T T T"
Si       1.35026181       1.35601218      -1.37174813       0.00000000
Si      -1.36373364      -1.36231641      -1.37233124       0.00000000
Si      -1.39579236       1.37130849       1.36560833       0.00000000
Si       1.48802634      -1.16102088       1.48126983       0.00000000
Si       2.71210581      -2.69861769       0.00833504       0.00000000
Si      -2.72707632       2.69819415      -0.02411330       0.00000000
Si      -2.72233593      -2.70681156       0.00212663       0.00000000
Si       2.70844056       2.72072322       0.01557246       0.00000000
Si       2.71200807      -0.00296478      -2.73193698       0.00000000
Si      -0.00247608       2.71277370      -2.73310320       0.00000000
