10
Lattice="16.28999089631971 0.0 0.0 0.0 16.28999089631971 0.0 0.0 0.0 34.3005442915855" Properties=species:S:1:pos:R:3:initial_magmoms:R:1 pbc="T T T"
Si      -1.86724125      -1.43612640       0.39970447       0.00000000
Si      -0.60369111       1.22380254      -2.12447400       0.00000000
Si       2.16661302      -1.01384073      -0.83782556       0.00000000
Si       0.78113808       0.53071191       2.46418678       0.00000000
Si       1.24199979      -2.89996209       0.14481698       0.00000000
Si      -1.03615803      -3.48597855      -0.57827320       0.00000000
Si       2.91474431       1.50568470       2.01944567       0.00000000
Si      -2.43620208       2.80438866      -1.20751704       0.00000000
Si      -3.80980746      -0.76792689      -0.88529754       0.00000000
Si       4.04448839       0.46983618      -0.02531382       0.00000000
