10
Lattice="16.28999089631971 0.0 0.0 0.0 16.28999089631971 0.0 0.0 0.0 34.3005442915855" Properties=species:S:1:pos:R:3:initial_magmoms:R:1 pbc="T T T"
Si      -0.59308632      -0.67368924       2.20089565       0.00000000
Si       1.86724125       1.43612640      -0.39970447       0.00000000
Si       0.83108322      -2.04985215      -0.97797767       0.00000000
Si      -1.94256621       0.66819951      -1.28500201       0.00000000
Si      -0.82753200      -0.53038611      -3.14038809       0.00000000
Si       3.10924104      -1.46383569      -0.25488749       0.00000000
Si      -0.56459511      -3.56700501       0.47461690       0.00000000
Si      -2.18877327      -2.34880623       1.75979041       0.00000000
Si       1.26355014       2.65992894      -2.52417847       0.00000000
Si       2.64837933       1.96683831       2.06448231       0.00000000
