10
Lattice="16.28999089631971 0.0 0.0 0.0 16.28999089631971 0.0 0.0 0.0 34.3005442915855" Properties=species:S:1:pos:R:3:initial_magmoms:R:1 pbc="T T T"
Si       1.12534578      -0.42863877      -2.00596555       0.00000000
Si       0.57741534       2.25381924       0.50953487       0.00000000
Si      -2.38091382      -0.11165166      -0.31789762       0.00000000
Si       0.25604622      -1.94654097       1.43808542       0.00000000
Si      -1.19703807      -0.98394858       3.11888163       0.00000000
Si      -0.63076509      -1.07038332      -3.45735959       0.00000000
Si      -3.11534847      -0.89383230       1.81902748       0.00000000
Si      -2.60402166      -1.49837049      -2.24919085       0.00000000
Si      -3.02296788       2.13755751      -0.61644973       0.00000000
Si       1.28099673       2.29861674       2.70682897       0.00000000
