10
Lattice="16.28999089631971 0.0 0.0 0.0 16.28999089631971 0.0 0.0 0.0 34.3005442915855" Properties=species:S:1:pos:R:3:initial_magmoms:R:1 pbc="T T T"
Si      -1.35633798      -1.35596331      -1.35737620       0.00000000
Si      -1.35749457       1.35718506       1.35665589       0.00000000
Si       1.35752715      -1.35752715       1.35771920       0.00000000
Si       1.35733167       1.35918873      -1.35710179       0.00000000
Si      -2.71437012       0.00231318       2.71334607       0.00000000
Si      -0.00162900       2.71536381      -2.71290017       0.00000000
Si       0.00001629      -2.71511946       2.71427219       0.00000000
Si       0.00144981       2.71536381       2.71427219       0.00000000
Si      -2.71507059       2.71485882      -0.00030871       0.00000000
Si       2.71507059       2.71500543      -0.00020580       0.00000000
