10
Lattice="16.28999089631971 0.0 0.0 0.0 16.28999089631971 0.0 0.0 0.0 34.3005442915855" Properties=species:S:1:pos:R:3:initial_magmoms:R:1 pbc="T T T"
Si       1.35668708       1.35760860      -1.35806221       0.00000000
Si      -1.35840681      -1.35715248      -1.35771920       0.00000000
Si       1.35849243      -1.35964485       1.35850812       0.00000000
Si      -1.36174626       1.35897696       1.36018884       0.00000000
Si       2.71377132      -2.71378368      -0.00161213       0.00000000
Si       2.71405639       0.00030951      -2.71609012       0.00000000
Si      -2.71448415       2.71573848      -0.00116622       0.00000000
Si      -2.71591767      -2.71474479      -0.00116622       0.00000000
Si      -0.00065160      -2.71498914      -2.71585001       0.00000000
Si      -0.00086337       2.71538010      -2.71564421       0.00000000
