10
Lattice="16.28999089631971 0.0 0.0 0.0 16.28999089631971 0.0 0.0 0.0 34.3005442915855" Properties=species:S:1:pos:R:3:initial_magmoms:R:1 pbc="T T T"
Si       0.09225027      -1.57040487       1.74703060       0.00000000
Si      -1.92611331       0.78104590       1.16762548       0.00000000
Si       1.77419277       1.60196579      -0.05783075       0.00000000
Si      -0.39811131      -1.72962333      -2.01827945       0.00000000
Si      -1.80206496      -0.67577436       3.04554703       0.00000000
Si      -1.73804526      -2.91796254       1.86992952       0.00000000
Si       2.69434971       1.96508618       2.12639483       0.00000000
Si      -3.95343639      -0.02518434       0.27522772       0.00000000
Si       0.87083082       3.35033891      -1.94964403       0.00000000
Si      -2.04753897       3.03377534       1.84787426       0.00000000
