10
Lattice="16.28999089631971 0.0 0.0 0.0 16.28999089631971 0.0 0.0 0.0 34.3005442915855" Properties=species:S:1:pos:R:3:initial_magmoms:R:1 pbc="T T T"
Si      -0.70358139      -0.04479750      -2.19729410       0.00000000
Si       2.13975666      -0.98728803       0.13689355       0.00000000
Si      -1.37153655      -1.33771851       1.38581136       0.00000000
Si       0.22465539       2.35345281       0.22247345       0.00000000
Si      -2.64629421       0.44510796       2.30156781       0.00000000
Si       1.06769547       1.27470879      -3.14014798       0.00000000
Si       1.97767116       2.67231816      -1.43691920       0.00000000
Si       1.72071270      -3.06338337       1.32002288       0.00000000
Si       3.52900763       0.62895690       1.17259906       0.00000000
Si      -1.28099673      -2.29861674      -2.70682897       0.00000000
