10
Lattice="16.28999089631971 0.0 0.0 0.0 16.28999089631971 0.0 0.0 0.0 34.3005442915855" Properties=species:S:1:pos:R:3:initial_magmoms:R:1 pbc="T T T"
Si      -1.23347065      -1.94699709       0.34698450       0.00000000
Si       0.12465108       1.29771027       1.97519795       0.00000000
Si       2.03118381      -1.17271710      -0.39462798       0.00000000
Si      -0.92652796       1.40064678      -1.72747928       0.00000000
Si       3.27528369       0.78483591      -0.52208888       0.00000000
Si      -2.95157600       0.21251934      -2.02805512       0.00000000
Si      -1.81685068       0.53170560       3.23286241       0.00000000
Si      -0.38692008      -3.12984657       2.17997231       0.00000000
Si       1.95372486      -2.11043466      -2.56242359       0.00000000
Si       0.72138636       1.64809188      -3.44195864       0.00000000
