10
Lattice="16.28999089631971 0.0 0.0 0.0 16.28999089631971 0.0 0.0 0.0 34.3005442915855" Properties=species:S:1:pos:R:3:initial_magmoms:R:1 pbc="T T T"
Si       0.03547962      -0.95480577       2.27289254       0.00000000
Si       0.37196586      -1.68207282      -1.78726516       0.00000000
Si      -2.51148631       0.65458107       0.32160208       0.00000000
Si       1.17827199       2.29983849      -1.08022765       0.00000000
Si      -2.20463321       1.90982331      -1.90848335       0.00000000
Si       3.49956441       0.46889136       0.88567485       0.00000000
Si       1.00105308       0.90192843       3.47734794       0.00000000
Si      -1.49397219      -1.38355857      -3.19379406       0.00000000
Si      -0.77211342       3.55475493      -1.05741777       0.00000000
Si       0.05927931      -3.75637626      -0.58986679       0.00000000
