10
Lattice="16.28999089631971 0.0 0.0 0.0 16.28999089631971 0.0 0.0 0.0 34.3005442915855" Properties=species:S:1:pos:R:3:initial_magmoms:R:1 pbc="T T T"
Si       1.35049701       1.35843939       1.38652825       0.00000000
Si      -1.36401551      -1.35461124       1.38649395       0.00000000
Si      -1.44007352       1.39320225      -1.33158560       0.00000000
Si       1.31580256      -1.41498198      -1.54508603       0.00000000
Si       2.70567351       2.71042794      -0.00569046       0.00000000
Si       2.72082321      -2.71515204      -0.01159359       0.00000000
Si      -2.71536875      -2.72865645       0.01213554       0.00000000
Si       2.70899667       0.00257382       2.74706010       0.00000000
Si      -0.00615573      -2.71296918       2.74812341       0.00000000
Si      -2.73190310       2.73197460       0.04091714       0.00000000
