10
Lattice="16.28999089631971 0.0 0.0 0.0 16.28999089631971 0.0 0.0 0.0 34.3005442915855" Properties=species:S:1:pos:R:3:initial_magmoms:R:1 pbc="T T T"
Si      -1.49478669       1.23769791       1.31089893       0.00000000
Si      -1.35575154      -1.35684297      -1.36049755       0.00000000
Si       1.35508365       1.36358703      -1.36056615       0.00000000
Si       1.52762733      -1.21119408       1.37174813       0.00000000
Si      -0.18427248       2.60673787       2.72548847       0.00000000
Si      -2.72546361      -2.70269019       0.03625570       0.00000000
Si      -2.71337969       0.00529425      -2.71838826       0.00000000
Si       2.71516833       0.00164529      -2.71725634       0.00000000
Si       0.00071676      -2.71274112      -2.71996608       0.00000000
Si       2.70505224       2.73253740       0.01865951       0.00000000
