10
Lattice="16.28999089631971 0.0 0.0 0.0 16.28999089631971 0.0 0.0 0.0 34.3005442915855" Properties=species:S:1:pos:R:3:initial_magmoms:R:1 pbc="T T T"
Si       1.35650414       1.35605581      -1.35826801       0.00000000
Si      -1.35912750       1.35815153       1.35669019       0.00000000
Si      -1.35855033      -1.35923760      -1.35785641       0.00000000
Si       1.35762815      -1.36213722       1.35789071       0.00000000
Si       2.71352630       2.71240785      -0.00188653       0.00000000
Si      -0.01196338       2.71373222       2.71279726       0.00000000
Si      -0.00118917       2.71343086      -2.71543841       0.00000000
Si       2.71421048      -0.00177561      -2.71557561       0.00000000
Si      -2.71701303       2.71305130      -0.00113192       0.00000000
Si      -2.71610079      -0.00146610      -2.71543841       0.00000000
