10
Lattice="16.28999089631971 0.0 0.0 0.0 16.28999089631971 0.0 0.0 0.0 34.3005442915855" Properties=species:S:1:pos:R:3:initial_magmoms:R:1 pbc="T T T"
Si       1.54160415      -0.09780516       1.76610171       0.00000000
Si       1.78487901      -0.95247141      -1.24692838       0.00000000
Si      -0.94342558       1.86794172      -1.14244887       0.00000000
Si      -1.78241759      -1.71224027       0.43551425       0.00000000
Si      -2.13679907       0.51517125      -2.61936253       0.00000000
Si       0.47436480      -2.32151138      -2.66151792       0.00000000
Si      -0.73966048      -3.43753928      -0.95780893       0.00000000
Si      -3.42118412      -0.74761978      -1.05371331       0.00000000
Si       2.55089997      -2.71305782       0.35281560       0.00000000
Si       1.55681901      -2.32535582       2.48823147       0.00000000
