10
Lattice="10.86 0.0 0.0 0.0 10.86 0.0 0.0 0.0 10.86" Properties=species:S:1:pos:R:3:initial_magmoms:R:1 pbc="T T T"
Si      -1.29585864       1.29585864      -1.36258248       0.00000000
Si       1.39037322      -1.39037322      -1.31359302       0.00000000
Si       0.06669126       2.64830874      -2.62089810       0.00000000
Si      -2.64830874      -0.06669126      -2.62089810       0.00000000
Si      -2.64830874       2.64830874       0.09410190       0.00000000
Si       2.78169126      -0.06669126      -2.62089810       0.00000000
Si       0.06669126      -2.78169126      -2.62089810       0.00000000
Si       2.78169126       2.64830874       0.09410190       0.00000000
Si      -2.64830874      -2.78169126       0.09410190       0.00000000
Si       0.06669126       2.64830874       2.80910190       0.00000000
