10
Lattice="16.28999089631971 0.0 0.0 0.0 16.28999089631971 0.0 0.0 0.0 34.281931910070035" Properties=species:S:1:pos:R:3:initial_magmoms:R:1 pbc="T T T"
Si      -0.08744472       2.24926523      -0.59235783       0.00000000
Si      -2.20643000      -0.47162808       0.79578693       0.00000000
Si       1.55528775       0.39394500       1.82575387       0.00000000
Si       0.72224973      -0.95909004      -2.16370534       0.00000000
Si       1.77629418       2.58446456      -1.94471224       0.00000000
Si      -3.53727087       0.12399948      -1.14128043       0.00000000
Si      -2.03310603      -2.54995515       1.94611780       0.00000000
Si       0.50974668      -0.30255417       3.83621889       0.00000000
Si       0.31980528       3.72880448       1.10538723       0.00000000
Si       3.51334575      -0.87485445       1.52647244       0.00000000
