10
Lattice="16.28999089631971 0.0 0.0 0.0 16.28999089631971 0.0 0.0 0.0 34.281931910070035" Properties=species:S:1:pos:R:3:initial_magmoms:R:1 pbc="T T T"
Si       1.35697329      -1.35691790      -1.35708532       0.00000000
Si      -1.35654975      -1.35731375       1.35780524       0.00000000
Si      -1.35734796       1.35749457      -1.35756526       0.00000000
Si       1.35855342       1.35856971       1.35705103       0.00000000
Si       2.70824508       0.00307881       2.71626183       0.00000000
Si      -0.00180819      -2.71366300       2.71485627       0.00000000
Si       2.71456560      -2.71489251      -0.00044567       0.00000000
Si       0.00162900      -2.71483739      -2.71468486       0.00000000
Si       2.71425609       2.71562445       0.00023997       0.00000000
Si       2.71678104      -0.00034209      -2.71324502       0.00000000
