10
Lattice="16.28999089631971 0.0 0.0 0.0 16.28999089631971 0.0 0.0 0.0 34.281931910070035" Properties=species:S:1:pos:R:3:initial_magmoms:R:1 pbc="T T T"
Si       1.39921326      -0.86205703       1.62729565       0.00000000
Si      -1.01077821      -1.87189434      -0.95050138       0.00000000
Si       1.27948176       1.39606603      -1.45043507       0.00000000
Si      -1.94212638       0.81997018       1.23133912       0.00000000
Si       1.17128358       1.04930080       2.99682532       0.00000000
Si       0.40164624       3.39530515      -0.54782558       0.00000000
Si      -1.64672352      -2.83994388       1.16884312       0.00000000
Si      -2.34103590      -0.74284355      -2.68784209       0.00000000
Si       0.84159027       3.14903293       1.79993956       0.00000000
Si       0.11723913      -2.49425379       2.77783221       0.00000000
