10
Lattice="16.28999089631971 0.0 0.0 0.0 16.28999089631971 0.0 0.0 0.0 34.281931910070035" Properties=species:S:1:pos:R:3:initial_magmoms:R:1 pbc="T T T"
Si      -1.86373890      -0.33519933       1.35235441       0.00000000
Si       0.22792968      -1.91135783      -1.36952966       0.00000000
Si       2.01618072      -0.28049751       1.19966260       0.00000000
Si      -0.32969331       2.09973213      -1.19688576       0.00000000
Si      -1.17128358      -1.04930080      -2.99682532       0.00000000
Si       1.91122425       2.76242562      -0.66301293       0.00000000
Si       3.32073279       0.79617375      -0.39921332       0.00000000
Si      -1.45648890       1.14433992       3.05009947       0.00000000
Si      -3.11340996      -0.22933062      -1.76548620       0.00000000
Si      -1.77629418      -2.58446456       1.94471224       0.00000000
