10
Lattice="16.28999089631971 0.0 0.0 0.0 16.28999089631971 0.0 0.0 0.0 34.281931910070035" Properties=species:S:1:pos:R:3:initial_magmoms:R:1 pbc="T T T"
Si       0.63612450      -1.07052993      -2.00244304       0.00000000
Si       0.08379576       2.26212714      -0.69369528       0.00000000
Si      -2.31119262      -0.54656208       0.24065930       0.00000000
Si       1.86813720       0.72389502       1.77244543       0.00000000
Si      -1.03878072      -0.01410714      -3.23210235       0.00000000
Si      -3.00991959       0.21418092      -1.91852083       0.00000000
Si      -0.33231600       3.36414564       1.39602961       0.00000000
Si      -2.48901426      -2.83335391       0.72283494       0.00000000
Si      -3.21263235       0.72710415       2.00453424       0.00000000
Si       0.54732771       2.06964450       3.30978525       0.00000000
