10
Lattice="16.28999089631971 0.0 0.0 0.0 16.28999089631971 0.0 0.0 0.0 34.281931910070035" Properties=species:S:1:pos:R:3:initial_magmoms:R:1 pbc="T T T"
Si       1.35700587      -1.35669636       1.35783952       0.00000000
Si       1.35817875       1.35839052      -1.35626255       0.00000000
Si      -1.35764118       1.35769005       1.35763383       0.00000000
Si      -1.35822762      -1.35788553      -1.35825090       0.00000000
Si      -2.71334385       0.00156384       2.71307361       0.00000000
Si       0.00130320      -2.71375110       2.71465058       0.00000000
Si      -2.71459818      -2.71482624       0.00003428       0.00000000
Si       2.71471221      -2.71511946       0.00041138       0.00000000
Si       2.71163340      -0.00055386      -2.71890154       0.00000000
Si       2.71516833       2.71539639       0.00006856       0.00000000
