10
Lattice="16.28999089631971 0.0 0.0 0.0 16.28999089631971 0.0 0.0 0.0 34.281931910070035" Properties=species:S:1:pos:R:3:initial_magmoms:R:1 pbc="T T T"
Si       1.35570267       1.35612621      -1.35543978       0.00000000
Si      -1.35915615      -1.35834165      -1.35550835       0.00000000
Si       1.35580041      -1.35755973       1.36068492       0.00000000
Si      -1.36006839       1.35615879       1.35993072       0.00000000
Si       2.71334385      -0.00156384      -2.71307361       0.00000000
Si      -0.00218286       2.71366965      -2.71314217       0.00000000
Si      -2.70484047       0.01322748       2.72411240       0.00000000
Si       2.71489140       2.71445157       0.00407955       0.00000000
Si      -0.00125433      -2.71639008      -2.71303933       0.00000000
Si      -2.71475293      -2.71520091       0.00109702       0.00000000
