10
Lattice="16.28999089631971 0.0 0.0 0.0 16.28999089631971 0.0 0.0 0.0 34.281931910070035" Properties=species:S:1:pos:R:3:initial_magmoms:R:1 pbc="T T T"
Si      -2.12789754      -0.79837290       0.44429409       0.00000000
Si       0.79576650      -1.03555530      -1.93350204       0.00000000
Si       1.32949206      -0.78050277       1.76990857       0.00000000
Si       0.26121015       2.33186463      -0.54076350       0.00000000
Si       3.04476390      -1.75831002       0.42173656       0.00000000
Si       2.11261752       1.30495932       2.57817413       0.00000000
Si      -2.54400930       0.30364560       2.53401898       0.00000000
Si       3.09832542      -0.62491698      -1.73562662       0.00000000
Si       2.36692071       2.68755678       0.46205214       0.00000000
Si      -3.42430461       0.17528040      -1.23593290       0.00000000
