10
Lattice="16.28999089631971 0.0 0.0 0.0 16.28999089631971 0.0 0.0 0.0 34.281931910070035" Properties=species:S:1:pos:R:3:initial_magmoms:R:1 pbc="T T T"
Si      -0.62784918      -0.27787482       2.23292060       0.00000000
Si      -2.11320396      -0.28134459      -0.96366564       0.00000000
Si       0.96454719       2.17093572      -0.24227055       0.00000000
Si       1.01934675      -2.07606276      -0.59530608       0.00000000
Si       3.18775752       1.49060016      -0.25858876       0.00000000
Si       0.55615689      -2.11932900      -2.93604342       0.00000000
Si      -0.12952179      -3.69677115       0.68625610       0.00000000
Si      -3.64672827      -0.58350780       0.78296548       0.00000000
Si      -1.86036687      -1.93637601      -2.66446180       0.00000000
Si      -2.71301805       0.68663979       2.59740630       0.00000000
