10
Lattice="16.28999089631971 0.0 0.0 0.0 16.28999089631971 0.0 0.0 0.0 34.281931910070035" Properties=species:S:1:pos:R:3:initial_magmoms:R:1 pbc="T T T"
Si       2.08516887      -0.96451461      -0.36448570       0.00000000
Si      -0.67829931      -0.49290282       2.20727770       0.00000000
Si      -0.93371022      -1.27014759      -1.81444082       0.00000000
Si      -0.21393657       2.38966155       0.23016902       0.00000000
Si       3.41075133       0.06799446       1.18296729       0.00000000
Si      -2.45837277       2.40103197       1.12053985       0.00000000
Si      -2.83387356       0.36742095       2.33922893       0.00000000
Si       0.59981409      -0.96798438      -3.56107195       0.00000000
Si       2.71301805      -0.68663979      -2.59740630       0.00000000
Si       2.03468616      -3.29396832       0.13263687       0.00000000
