10
Lattice="16.28999089631971 0.0 0.0 0.0 16.28999089631971 0.0 0.0 0.0 34.281931910070035" Properties=species:S:1:pos:R:3:initial_magmoms:R:1 pbc="T T T"
Si      -2.06646795       0.97445151       0.36685116       0.00000000
Si       0.41995620       0.77129892      -2.18962250       0.00000000
Si       1.62997740       1.02863205       1.36294753       0.00000000
Si      -0.35934111      -2.37796533       0.37377611       0.00000000
Si      -0.05339862       1.88538831       2.88683274       0.00000000
Si       2.44587834      -0.34974630      -2.70100636       0.00000000
Si      -3.53597419       0.27280863      -1.34405817       0.00000000
Si      -2.69250894      -2.55827934       0.82129270       0.00000000
Si      -1.81851786       3.36456918       0.42125661       0.00000000
Si       0.44613423       3.15159372      -2.21574534       0.00000000
