10
Lattice="16.28999089631971 0.0 0.0 0.0 16.28999089631971 0.0 0.0 0.0 34.281931910070035" Properties=species:S:1:pos:R:3:initial_magmoms:R:1 pbc="T T T"
Si       1.35725022       1.35534429      -1.35715388       0.00000000
Si      -1.35982404       1.35280305       1.35777095       0.00000000
Si       1.35280305      -1.35698958       1.36459306       0.00000000
Si      -1.35795069      -1.35977517      -1.35684534       0.00000000
Si      -2.69232486      -0.00767259       2.71763311       0.00000000
Si       0.00664632       2.71632492       2.70357751       0.00000000
Si      -2.71396124       2.71287144       0.00123415       0.00000000
Si      -0.00016290       2.71292031      -2.71451345       0.00000000
Si       2.71428867      -0.00148239      -2.71434204       0.00000000
Si       2.71415835       2.71458189       0.00078848       0.00000000
