10
Lattice="16.28999089631971 0.0 0.0 0.0 16.28999089631971 0.0 0.0 0.0 34.281931910070035" Properties=species:S:1:pos:R:3:initial_magmoms:R:1 pbc="T T T"
Si      -1.28932092       1.52370144      -1.17374544       0.00000000
Si       0.33474321       1.10429910       2.11283093       0.00000000
Si       2.27633202       0.35580618       0.73994163       0.00000000
Si      -2.09100069      -1.39064472       0.35838352       0.00000000
Si      -2.00645559       0.62478666       1.79277463       0.00000000
Si       1.99743093      -1.68720417       1.95749941       0.00000000
Si      -2.46127239      -0.14406876      -2.39740540       0.00000000
Si       0.35707680       2.47146083      -2.53189350       0.00000000
Si       2.98395333      -0.43118001      -2.25321552       0.00000000
Si       0.44264817       3.44752505       1.70329874       0.00000000
