10
Lattice="16.28999089631971 0.0 0.0 0.0 16.28999089631971 0.0 0.0 0.0 34.281931910070035" Properties=species:S:1:pos:R:3:initial_magmoms:R:1 pbc="T T T"
Si      -1.23662277      -0.67160412       1.93182222       0.00000000
Si       2.34119880       0.47951244       0.32005630       0.00000000
Si      -0.95130342       1.82745360      -1.31632408       0.00000000
Si      -0.08454510      -2.01543138      -1.43439111       0.00000000
Si       2.00645559      -0.62478666      -1.79277463       0.00000000
Si       0.71713467       0.89891478      -2.96652007       0.00000000
Si      -2.57500917      -2.19331818       0.72616029       0.00000000
Si      -3.20709375       1.07869122      -1.15399904       0.00000000
Si       2.44910376       2.82273839      -0.08947589       0.00000000
Si       2.68374492      -0.10463067       2.61399877       0.00000000
