10
Lattice="16.28999089631971 0.0 0.0 0.0 16.28999089631971 0.0 0.0 0.0 34.281931910070035" Properties=species:S:1:pos:R:3:initial_magmoms:R:1 pbc="T T T"
Si      -0.70198497      -0.59644206       2.10024945       0.00000000
Si       1.87786233      -1.09600749      -0.73637631       0.00000000
Si       0.97961544       2.18207808       0.48272415       0.00000000
Si      -1.64364471      -1.11309570      -1.51015423       0.00000000
Si       1.53834615      -0.43903179      -2.96209770       0.00000000
Si      -0.76101993       0.00410508      -3.39182196       0.00000000
Si      -0.97844256       3.45087753       0.78200559       0.00000000
Si      -0.72816300      -2.97673686       2.12637230       0.00000000
Si      -2.76319125       0.54139815       2.49884570       0.00000000
Si       3.91943916      -0.48747825       0.22046723       0.00000000
