10
Lattice="16.28999089631971 0.0 0.0 0.0 16.28999089631971 0.0 0.0 0.0 34.281931910070035" Properties=species:S:1:pos:R:3:initial_magmoms:R:1 pbc="T T T"
Si      -0.38323854       2.32526718       0.05132008       0.00000000
Si       1.97113887      -0.22828806      -1.31358152       0.00000000
Si      -1.96231555      -0.94610691      -0.95886617       0.00000000
Si       0.69872697      -0.76074300       2.15918012       0.00000000
Si       1.79730828       3.02159952      -0.45540144       0.00000000
Si       3.00991959      -0.21418092       1.91852083       0.00000000
Si      -1.60908059       2.65626369      -1.92414307       0.00000000
Si      -1.97602049      -3.16638178      -0.20010375       0.00000000
Si       1.56388887      -1.70782731      -3.01132658       0.00000000
Si       3.64604409      -1.28471085      -0.08392222       0.00000000
