10
Lattice="16.28999089631971 0.0 0.0 0.0 16.28999089631971 0.0 0.0 0.0 34.281931910070035" Properties=species:S:1:pos:R:3:initial_magmoms:R:1 pbc="T T T"
Si      -0.73920762      -2.21298021      -0.29362491       0.00000000
Si       1.04554107       0.69649917      -2.01046502       0.00000000
Si      -1.64017494       1.21211188       1.22410563       0.00000000
Si       1.29836187      -2.06048952       1.34196697       0.00000000
Si       1.48496382       2.97493586      -1.50117236       0.00000000
Si       1.32199866      -3.35082042      -0.69222116       0.00000000
Si      -0.94265343      -3.13784496       1.94478080       0.00000000
Si       3.00359907      -0.57230028      -2.30974645       0.00000000
Si      -1.46235330       3.49890371       0.74192999       0.00000000
Si      -0.50974668       0.30255417      -3.83621889       0.00000000
