10
Lattice="16.28999089631971 0.0 0.0 0.0 16.28999089631971 0.0 0.0 0.0 34.281931910070035" Properties=species:S:1:pos:R:3:initial_magmoms:R:1 pbc="T T T"
Si      -1.64639772      -0.94775939       1.35814806       0.00000000
Si      -1.55805705       1.15140815      -1.32355757       0.00000000
Si       1.17856521      -1.58052815      -1.30394829       0.00000000
Si       0.84593970       1.59547518       1.66850256       0.00000000
Si       2.48301954       2.53922004       0.14391563       0.00000000
Si      -0.35707680      -2.47146083       2.53189350       0.00000000
Si      -0.20639430       2.50387074      -2.68996757       0.00000000
Si       2.51929737      -0.21599581      -2.68938478       0.00000000
Si      -2.81329929       2.56525146       0.17120406       0.00000000
Si      -0.83616570       3.41790264       1.54392195       0.00000000
