10
Lattice="16.28999089631971 0.0 0.0 0.0 16.28999089631971 0.0 0.0 0.0 34.281931910070035" Properties=species:S:1:pos:R:3:initial_magmoms:R:1 pbc="T T T"
Si       0.11057652      -1.58509651       1.64635642       0.00000000
Si       0.42590205       2.06649336       0.98310351       0.00000000
Si      -2.30163039      -0.17286754      -0.52540518       0.00000000
Si       1.61710830      -0.40381087      -1.73374111       0.00000000
Si       0.26691165       3.13619250      -1.17573379       0.00000000
Si      -1.92854052      -1.57963936      -2.39517708       0.00000000
Si       1.71473427       1.83201510      -2.50961023       0.00000000
Si       0.34163388      -2.02826596      -2.90806935       0.00000000
Si      -1.58680890      -1.03701946       3.17742263       0.00000000
Si       2.29526100      -1.68374875       2.45184514       0.00000000
