10
Lattice="16.28999089631971 0.0 0.0 0.0 16.28999089631971 0.0 0.0 0.0 34.281931910070035" Properties=species:S:1:pos:R:3:initial_magmoms:R:1 pbc="T T T"
Si       2.24137368      -0.82837908      -0.27987785       0.00000000
Si      -0.63234522      -2.11781403       0.98461192       0.00000000
Si      -0.49588389       2.02339719       1.27240890       0.00000000
Si      -1.94176800      -0.34331175      -1.55756616       0.00000000
Si      -0.18933867      -3.52764837      -0.96603110       0.00000000
Si      -2.98458864      -1.96970535       1.11046096       0.00000000
Si       2.05866504      -3.07090935      -0.99664488       0.00000000
Si       1.56318840       3.29636295      -1.54316775       0.00000000
Si      -2.91240765       2.20635018       1.54399051       0.00000000
Si      -1.11107574      -1.08580995      -3.65730139       0.00000000
