10
Lattice="16.28999089631971 0.0 0.0 0.0 16.28999089631971 0.0 0.0 0.0 34.281931910070035" Properties=species:S:1:pos:R:3:initial_magmoms:R:1 pbc="T T T"
Si       2.15616069      -0.90816750       0.50000226       0.00000000
Si      -0.91600299       0.76906719       2.08170291       0.00000000
Si      -1.15287588      -0.43862454      -2.11718473       0.00000000
Si       2.24130852       1.55978379      -2.12589235       0.00000000
Si       0.68991408       0.26816598      -3.57307063       0.00000000
Si      -2.05907229      -1.27296576       2.81557664       0.00000000
Si       1.02640032       1.21586931       3.43361166       0.00000000
Si       2.20143060      -3.16944756      -0.24957260       0.00000000
Si      -3.04891785       1.19506698      -2.11927593       0.00000000
Si       3.78392265      -0.04572603      -1.09167445       0.00000000
