10
Lattice="16.28999089631971 0.0 0.0 0.0 16.28999089631971 0.0 0.0 0.0 34.281931910070035" Properties=species:S:1:pos:R:3:initial_magmoms:R:1 pbc="T T T"
Si       0.69605541       2.17077282       0.53815807       0.00000000
Si      -2.30255892      -0.41063832      -0.19787542       0.00000000
Si      -0.05356152      -1.13339304       2.15736318       0.00000000
Si       0.85488291      -0.51883650      -2.23662305       0.00000000
Si      -0.87772149      -3.18125781       1.29410937       0.00000000
Si      -3.09832542       0.62491698       1.73562662       0.00000000
Si       0.13292640       3.32535915      -1.41978700       0.00000000
Si       3.06569655       1.91712123       0.55852155       0.00000000
Si       0.50124330      -2.79655317      -2.49836575       0.00000000
Si      -2.70614367      -2.73900060      -0.11230767       0.00000000
