10
Lattice="16.28999089631971 0.0 0.0 0.0 16.28999089631971 0.0 0.0 0.0 34.281931910070035" Properties=species:S:1:pos:R:3:initial_magmoms:R:1 pbc="T T T"
Si      -1.32949206       0.78050277      -1.76990857       0.00000000
Si       0.78312546       2.08546209       0.80826556       0.00000000
Si       1.71527184      -0.97780725      -1.34817201       0.00000000
Si      -1.67304816      -1.55610225       1.14052623       0.00000000
Si       3.41299935      -1.23870789       0.23088894       0.00000000
Si      -3.45738960      -0.01787013      -1.32561448       0.00000000
Si      -0.53372556      -0.25505253      -3.70341061       0.00000000
Si       1.03742865       3.46805955      -1.30785643       0.00000000
Si       0.89111187      -3.02567202      -2.21142582       0.00000000
Si       1.76883336       0.15558579      -3.50553519       0.00000000
