10
Lattice="16.28999089631971 0.0 0.0 0.0 16.28999089631971 0.0 0.0 0.0 34.281931910070035" Properties=species:S:1:pos:R:3:initial_magmoms:R:1 pbc="T T T"
Si      -1.50224751      -0.96806583      -1.51337814       0.00000000
Si       1.14067467      -1.47233907       1.46886847       0.00000000
Si       1.28710548       1.36889757      -1.46233232       0.00000000
Si      -1.56100554       1.24572888       1.48058947       0.00000000
Si       2.57173488       2.66817168       0.08682590       0.00000000
Si       2.48727123      -0.10842624       2.85086648       0.00000000
Si       2.50476669      -2.84157873      -0.04834441       0.00000000
Si      -0.29735766      -1.68370182      -3.46522102       0.00000000
Si      -0.22716405       2.60701902       2.85669441       0.00000000
Si      -2.78008398      -2.70891297      -0.06255428       0.00000000
