10
Lattice="16.28999089631971 0.0 0.0 0.0 16.28999089631971 0.0 0.0 0.0 34.281931910070035" Properties=species:S:1:pos:R:3:initial_magmoms:R:1 pbc="T T T"
Si       1.35573525      -1.35524655       1.35605686       0.00000000
Si      -1.33384149      -1.36129014      -1.37610494       0.00000000
Si      -1.35734796       1.36060596       1.35701675       0.00000000
Si       1.35542574       1.35368271      -1.37138089       0.00000000
Si      -2.70793557       0.04645908      -2.63601121       0.00000000
Si      -0.00114030      -2.71336014       2.71492483       0.00000000
Si       2.71383255       0.00104256       2.71492483       0.00000000
Si       2.71443528      -2.71544526      -0.00582793       0.00000000
Si       2.71256193       2.71774215      -0.00267399       0.00000000
Si      -2.71816569      -2.71267596      -0.00617075       0.00000000
