10
Lattice="16.28999089631971 0.0 0.0 0.0 16.28999089631971 0.0 0.0 0.0 34.281931910070035" Properties=species:S:1:pos:R:3:initial_magmoms:R:1 pbc="T T T"
Si      -1.58804694      -0.63105831      -1.67045663       0.00000000
Si      -0.35013726       1.35233064       1.97155501       0.00000000
Si       1.80183690       1.37407779      -0.87189286       0.00000000
Si       1.08357822      -2.18810538       0.37847274       0.00000000
Si      -3.45377322      -0.60020505      -0.26794773       0.00000000
Si      -2.28659472       1.67063724      -2.47100875       0.00000000
Si       0.34889922       0.06012639       3.80611934       0.00000000
Si       3.02598153      -1.74130326       1.73038148       0.00000000
Si       0.48169530       3.58143795       1.57738113       0.00000000
Si       1.99958121      -2.95717257      -1.70323017       0.00000000
