10
Lattice="16.28999089631971 0.0 0.0 0.0 16.28999089631971 0.0 0.0 0.0 34.281931910070035" Properties=species:S:1:pos:R:3:initial_magmoms:R:1 pbc="T T T"
Si       1.34379468       1.34542368      -1.38262537       0.00000000
Si      -1.37189493      -1.37285604      -1.38430518       0.00000000
Si       1.56284631      -1.19384523       1.43483678       0.00000000
Si      -1.25651286       1.37008674       1.58430609       0.00000000
Si       0.25966260      -0.26912709       3.41756770       0.00000000
Si      -2.70482418       2.69219943       0.00167982       0.00000000
Si       2.70111006       2.70505224       0.01796374       0.00000000
Si      -2.73634533      -2.69588097      -0.01772377       0.00000000
Si       2.70386307      -2.73022029      -0.01498121       0.00000000
Si      -0.01065366       2.70143586      -2.74197329       0.00000000
