10
Lattice="16.28999089631971 0.0 0.0 0.0 16.28999089631971 0.0 0.0 0.0 34.281931910070035" Properties=species:S:1:pos:R:3:initial_magmoms:R:1 pbc="T T T"
Si       0.74991015      -2.17512225      -0.15546865       0.00000000
Si      -0.79210125       1.55071026       1.59044256       0.00000000
Si      -1.71748728      -0.57651939      -1.51728487       0.00000000
Si       1.05580377       1.37502261      -1.79880825       0.00000000
Si      -1.43858619       1.46649096      -2.73484265       0.00000000
Si      -3.03762888       1.63084077       0.93198912       0.00000000
Si       0.72228231       3.27248181       1.27216892       0.00000000
Si       0.76225797       3.60490111      -1.05115318       0.00000000
Si      -0.49334265      -3.69190044       1.08498947       0.00000000
Si       3.54801087       1.20576951      -1.21539801       0.00000000
