10
Lattice="16.28999089631971 0.0 0.0 0.0 16.28999089631971 0.0 0.0 0.0 34.281931910070035" Properties=species:S:1:pos:R:3:initial_magmoms:R:1 pbc="T T T"
Si      -1.35559678      -1.35685926       1.35660537       0.00000000
Si      -1.35755973       1.35726651      -1.35797665       0.00000000
Si       1.35915615       1.35834165       1.35550835       0.00000000
Si       1.35790182      -1.35804843      -1.35753098       0.00000000
Si      -2.71450184       2.71448415       0.00000000       0.00000000
Si       2.71485882       2.71446786       0.00006856       0.00000000
Si      -0.00091224       2.71450044       2.71543906       0.00000000
Si       2.71427238      -0.00110772      -2.71581616       0.00000000
Si      -2.71521359      -2.71523349       0.00030854       0.00000000
Si      -0.00022806      -2.71581993      -2.71471914       0.00000000
