10
Lattice="16.28999089631971 0.0 0.0 0.0 16.28999089631971 0.0 0.0 0.0 34.281931910070035" Properties=species:S:1:pos:R:3:initial_magmoms:R:1 pbc="T T T"
Si       0.71451198      -1.78240293      -1.44309873       0.00000000
Si      -2.04312438      -0.74661957       1.23281324       0.00000000
Si      -0.50852493       1.92715587      -1.57751826       0.00000000
Si       2.20405329       0.79698825       1.38913894       0.00000000
Si       1.18886049       1.37907882      -3.10858448       0.00000000
Si       0.62851707      -0.82598445      -3.63196702       0.00000000
Si      -1.94051367       0.55925199       3.20204809       0.00000000
Si       3.00873042      -2.28310866      -0.96801945       0.00000000
Si       1.44270756      -2.41059420       2.88438052       0.00000000
Si      -4.01654385       0.35538264       0.28200333       0.00000000
