10
Lattice="16.28999089631971 0.0 0.0 0.0 16.28999089631971 0.0 0.0 0.0 34.281931910070035" Properties=species:S:1:pos:R:3:initial_magmoms:R:1 pbc="T T T"
Si      -1.47323502       1.19862092      -1.37673916       0.00000000
Si      -1.35690813      -1.35297693       1.37262875       0.00000000
Si       1.36260963       1.36072923       1.37084609       0.00000000
Si       1.28386377      -1.31482575      -1.57287648       0.00000000
Si       2.71541268      -2.70398808      -0.02805635       0.00000000
Si      -2.71981098       2.70135061       0.00603020       0.00000000
Si       2.71259451       2.71438261      -0.01570799       0.00000000
Si      -2.71404432      -2.71703637       0.00392186       0.00000000
Si      -0.00029322      -2.71343628       2.73255947       0.00000000
Si      -2.71313208       0.00488995       2.73413644       0.00000000
