10
Lattice="16.28999089631971 0.0 0.0 0.0 16.28999089631971 0.0 0.0 0.0 34.281931910070035" Properties=species:S:1:pos:R:3:initial_magmoms:R:1 pbc="T T T"
Si      -0.74290545      -1.84413649      -1.42081546       0.00000000
Si      -1.71222561       1.78230519      -0.42831870       0.00000000
Si       1.89543924       0.83766438      -1.54351056       0.00000000
Si       0.15263730      -0.61387399       2.55345684       0.00000000
Si       0.26059113       2.62343934       2.42273976       0.00000000
Si      -2.11196592      -0.54937373      -3.07865633       0.00000000
Si       0.62558487       2.15471088      -3.11979468       0.00000000
Si      -2.03998041      -3.26450690       0.08237953       0.00000000
Si       2.76364478       2.69526195      -0.32807827       0.00000000
Si      -1.93567554       2.94756147       1.62091921       0.00000000
