10
Lattice="16.28999089631971 0.0 0.0 0.0 16.28999089631971 0.0 0.0 0.0 34.281931910070035" Properties=species:S:1:pos:R:3:initial_magmoms:R:1 pbc="T T T"
Si      -1.40297625       0.91119744      -1.65533829       0.00000000
Si      -0.45564759      -2.33127819      -0.16338778       0.00000000
Si       2.44753082       0.31104126       0.14470412       0.00000000
Si       0.01629000       1.77275925       1.73182132       0.00000000
Si      -0.98215668      -0.01036044       3.06564432       0.00000000
Si      -2.86896222      -0.93323781       1.97597022       0.00000000
Si      -1.03957893       3.33396027      -1.10041635       0.00000000
Si       3.34897055      -0.96262497      -1.61917083       0.00000000
Si      -3.67564302       0.62522649      -0.99702198       0.00000000
Si       3.28543955      -1.04198985       1.86848156       0.00000000
