10
Lattice="16.28999089631971 0.0 0.0 0.0 16.28999089631971 0.0 0.0 0.0 34.281931910070035" Properties=species:S:1:pos:R:3:initial_magmoms:R:1 pbc="T T T"
Si      -0.99844668      -1.78311969       1.33382299       0.00000000
Si      -0.01629000      -1.77275925      -1.73182132       0.00000000
Si       1.83358189       0.98802108       1.37218107       0.00000000
Si      -1.72472004       1.98467586      -0.11374751       0.00000000
Si       2.43124082      -1.46171799      -1.58711721       0.00000000
Si      -1.05586893       1.56120102      -2.83223767       0.00000000
Si      -2.18650896      -0.31728033       2.79380558       0.00000000
Si       2.97838934       0.99500949      -1.74810525       0.00000000
Si       0.53427431       2.38682709       2.80525233       0.00000000
Si      -1.41926625      -0.86156181      -3.38715961       0.00000000
