10
Lattice="16.28999089631971 0.0 0.0 0.0 16.28999089631971 0.0 0.0 0.0 34.281931910070035" Properties=species:S:1:pos:R:3:initial_magmoms:R:1 pbc="T T T"
Si       1.97503774      -1.18493460      -0.19760117       0.00000000
Si       0.16907391       2.14814601      -0.99019987       0.00000000
Si      -1.81092672      -1.54219059      -0.37343329       0.00000000
Si      -0.87962742       0.52706295       2.24272524       0.00000000
Si      -2.03989896       1.80504603      -1.66857112       0.00000000
Si      -3.33120726       0.34569009      -0.28512299       0.00000000
Si       2.39554943      -0.84504375      -2.57063210       0.00000000
Si       1.30507402      -3.46186935       0.20164644       0.00000000
Si      -1.21575528      -3.44983104       0.88361729       0.00000000
Si      -3.06698346      -0.47003166       2.13237164       0.00000000
