10
Lattice="16.28999089631971 0.0 0.0 0.0 16.28999089631971 0.0 0.0 0.0 34.281931910070035" Properties=species:S:1:pos:R:3:initial_magmoms:R:1 pbc="T T T"
Si       1.26297999       1.53967771      -1.33906813       0.00000000
Si      -1.28386377       1.31482575       1.57287648       0.00000000
Si      -1.17863037      -1.61034795      -1.42765269       0.00000000
Si       1.43154891      -1.38916233       1.54482014       0.00000000
Si      -2.55443490      -2.69474067       0.17831071       0.00000000
Si      -2.75709879       2.51344667       0.19613733       0.00000000
Si       2.79675909       2.67445377       0.03824837       0.00000000
Si      -2.64077190      -0.03815118       2.94550524       0.00000000
Si       0.07874586       2.67555498       2.94372257       0.00000000
Si       2.87889816      -2.81312010       0.16185195       0.00000000
