10
Lattice="16.28999089631971 0.0 0.0 0.0 16.28999089631971 0.0 0.0 0.0 34.281931910070035" Properties=species:S:1:pos:R:3:initial_magmoms:R:1 pbc="T T T"
Si       1.35929397       1.35516510      -1.39788084       0.00000000
Si      -1.35731538      -1.35962856      -1.40058911       0.00000000
Si       1.50580217      -1.30696299       1.33000257       0.00000000
Si      -1.35220032       1.40660535       1.65441268       0.00000000
Si       2.39415826       0.59162022       2.71060531       0.00000000
Si      -2.70111006      -2.70505224      -0.01796374       0.00000000
Si      -2.72126079       2.70136811      -0.00342820       0.00000000
Si       2.70199691       2.72845838      -0.02656851       0.00000000
Si       2.74130956      -2.72460024      -0.04405231       0.00000000
Si      -2.71176372      -0.00361638      -2.75993703       0.00000000
