10
Lattice="16.28999089631971 0.0 0.0 0.0 16.28999089631971 0.0 0.0 0.0 34.281931910070035" Properties=species:S:1:pos:R:3:initial_magmoms:R:1 pbc="T T T"
Si      -0.06300972       2.31459138      -0.22430681       0.00000000
Si      -0.36849609      -0.56638701      -2.22650988       0.00000000
Si      -1.53798777      -1.04982534       1.46572482       0.00000000
Si       2.28314124      -0.74859066       0.14857798       0.00000000
Si       0.36110043      -1.87374096       2.90416120       0.00000000
Si       0.55799766      -2.67056631      -2.27488171       0.00000000
Si       1.96607268       2.69930906       1.21433527       0.00000000
Si       3.30925878       1.40266252      -0.25553766       0.00000000
Si       0.97257816       0.96415623      -3.40412918       0.00000000
Si      -2.36975517       0.70307640       3.01259501       0.00000000
