10
Lattice="16.28999089631971 0.0 0.0 0.0 16.28999089631971 0.0 0.0 0.0 34.281931910070035" Properties=species:S:1:pos:R:3:initial_magmoms:R:1 pbc="T T T"
Si      -2.17774887      -0.78345126       0.40809235       0.00000000
Si       1.15882499      -2.07285363       0.12564335       0.00000000
Si      -0.42841234       0.40200462      -2.33929750       0.00000000
Si       0.19079174       1.75148451       2.01317329       0.00000000
Si      -2.92767531       0.75310299       2.07457227       0.00000000
Si       3.35745371       0.81479322       1.29081830       0.00000000
Si       0.02772721      -3.06636444       2.08698234       0.00000000
Si       2.03416814       2.90774871       1.24830868       0.00000000
Si       3.29750651      -1.61767845       1.08214407       0.00000000
Si      -2.05936944       2.27256903      -2.34320564       0.00000000
