10
Lattice="16.28999089631971 0.0 0.0 0.0 16.28999089631971 0.0 0.0 0.0 34.281931910070035" Properties=species:S:1:pos:R:3:initial_magmoms:R:1 pbc="T T T"
Si      -2.00888280       0.69589251      -0.97905824       0.00000000
Si       1.53352431       0.30216321      -1.74663112       0.00000000
Si      -0.18984366      -2.28027420       0.58399304       0.00000000
Si       0.93371022       1.27014759       1.81444082       0.00000000
Si       3.01887909       0.30563298       1.44995512       0.00000000
Si       0.73125810       2.27475189      -2.73741379       0.00000000
Si      -1.55779641       2.62185921      -2.21715090       0.00000000
Si       3.64672827       0.58350780      -0.78296548       0.00000000
Si      -3.44892532       1.50389280       0.62348584       0.00000000
Si       0.79465878      -2.66113440       2.64478396       0.00000000
