10
Lattice="16.28999089631971 0.0 0.0 0.0 16.28999089631971 0.0 0.0 0.0 34.281931910070035" Properties=species:S:1:pos:R:3:initial_magmoms:R:1 pbc="T T T"
Si       1.35875867       1.35607734      -1.35636539       0.00000000
Si      -1.35734537      -1.35764118      -1.35622827       0.00000000
Si       1.35763466      -1.35716877       1.35735957       0.00000000
Si      -1.35726188       1.35765747       1.35759954       0.00000000
Si      -0.00329873      -2.71547784      -2.71139379       0.00000000
Si       0.00191082      -2.71293660       2.71427348       0.00000000
Si       2.71452650      -2.71443528      -0.00034282       0.00000000
Si      -2.71422092      -2.71484253       0.00010285       0.00000000
Si      -2.71366706       0.00120546       2.71591901       0.00000000
Si       2.71558535       0.00260640       2.71420491       0.00000000
