10
Lattice="16.28999089631971 0.0 0.0 0.0 16.28999089631971 0.0 0.0 0.0 34.281931910070035" Properties=species:S:1:pos:R:3:initial_magmoms:R:1 pbc="T T T"
Si      -1.43231454       0.84903480       1.69431687       0.00000000
Si       1.55502711       1.30579011      -1.27943670       0.00000000
Si       1.92529881       0.05921415       1.47635222       0.00000000
Si      -1.23823548      -1.65964149      -1.27151757       0.00000000
Si       0.10816560       2.35304163      -2.75969706       0.00000000
Si      -0.56516526      -0.11867265       3.63690362       0.00000000
Si      -2.59080558      -0.37095588      -2.74564146       0.00000000
Si      -1.19724984       3.15333675       1.75674430       0.00000000
Si       2.81468394      -0.34797069      -2.70542873       0.00000000
Si      -3.02774574      -2.62441674       0.04929745       0.00000000
