10
Lattice="16.28999089631971 0.0 0.0 0.0 16.28999089631971 0.0 0.0 0.0 34.281931910070035" Properties=species:S:1:pos:R:3:initial_magmoms:R:1 pbc="T T T"
Si       1.77753874       0.88038378      -1.45900556       0.00000000
Si       1.74070705       0.20807217       1.74772815       0.00000000
Si      -0.88835609      -1.89858321      -1.38060273       0.00000000
Si      -0.86774875      -1.95628239       1.36908400       0.00000000
Si       1.50564235      -2.09622978       1.68530071       0.00000000
Si       0.30783865       2.13683816      -2.73717382       0.00000000
Si      -2.39415826      -0.59162022      -2.71060531       0.00000000
Si       2.78069323       2.46233843      -0.00421668       0.00000000
Si      -1.10801389       3.49678601      -1.17888773       0.00000000
Si      -3.74635858       0.81498513      -1.05619263       0.00000000
