10
Lattice="16.28999089631971 0.0 0.0 0.0 16.28999089631971 0.0 0.0 0.0 34.281931910070035" Properties=species:S:1:pos:R:3:initial_magmoms:R:1 pbc="T T T"
Si      -1.84337640      -1.15626420       0.76486461       0.00000000
Si      -0.86714928       0.96770745      -1.94258676       0.00000000
Si       1.33838640       1.52171406       1.20566194       0.00000000
Si       1.32328557      -2.09295549       0.04250962       0.00000000
Si       2.49046407       0.17788680      -2.16055140       0.00000000
Si       1.24594065      -1.91231568       2.40439892       0.00000000
Si       2.57500917       2.19331818      -0.72616029       0.00000000
Si      -1.04311386      -1.56520836       2.92466181       0.00000000
Si       2.19348108       0.13958901       2.95349293       0.00000000
Si       0.56516526       0.11867265      -3.63690362       0.00000000
