10
Lattice="16.28999089631971 0.0 0.0 0.0 16.28999089631971 0.0 0.0 0.0 34.63643526849801" Properties=species:S:1:pos:R:3:initial_magmoms:R:1 pbc="T T T"
Si       1.39517823      -0.86170842       1.61987771       0.00000000
Si      -1.01739358       2.09737008       0.55730055       0.00000000
Si       1.76795859       0.08105904      -1.62368772       0.00000000
Si      -1.37475822      -1.87737363      -0.67568796       0.00000000
Si       1.90386606      -3.02933727       0.70952777       0.00000000
Si      -0.50067804      -3.53910024       0.74094304       0.00000000
Si      -2.72600348       2.35217826      -1.04207237       0.00000000
Si       1.52360859      -1.89403830      -2.95504376       0.00000000
Si      -0.70513871      -2.54817954      -2.80738856       0.00000000
Si       1.28269578       1.70667072      -3.23376331       0.00000000
