10
Lattice="16.28999089631971 0.0 0.0 0.0 16.28999089631971 0.0 0.0 0.0 34.63643526849801" Properties=species:S:1:pos:R:3:initial_magmoms:R:1 pbc="T T T"
Si      -1.37363796       1.35576783       1.42085664       0.00000000
Si       1.37207412      -1.52528157       1.28670965       0.00000000
Si      -1.88291223      -1.31354415      -0.83349164       0.00000000
Si       0.52072614       0.82471383      -2.28094908       0.00000000
Si      -1.18675908      -0.67663773      -2.94770083       0.00000000
Si       0.01366731       2.64857481       2.77837156       0.00000000
Si       2.76120387      -0.10158444       2.69915799       0.00000000
Si      -2.69480583      -0.10891494       2.83909619       0.00000000
Si       2.07200655      -3.33904275      -0.16400361       0.00000000
Si      -2.71299850       2.92545594       0.13761063       0.00000000
