10
Lattice="16.28999089631971 0.0 0.0 0.0 16.28999089631971 0.0 0.0 0.0 34.63643526849801" Properties=species:S:1:pos:R:3:initial_magmoms:R:1 pbc="T T T"
Si       1.10133432       0.30091051       2.10953327       0.00000000
Si       0.93838545       1.65086932      -1.48375644       0.00000000
Si      -2.07663291       1.22486628       0.49453930       0.00000000
Si      -0.23169267      -2.19605394      -1.10168171       0.00000000
Si       0.48979143       3.44768890       0.01170712       0.00000000
Si      -1.09092501       2.18768999      -2.62572035       0.00000000
Si       1.69971489       2.62975172       1.87494056       0.00000000
Si      -2.69184105       0.26557750      -2.67968395       0.00000000
Si      -3.79102509      -0.02352602      -0.54067506       0.00000000
Si      -1.82110797       3.32932577      -0.51771109       0.00000000
