10
Lattice="16.28999089631971 0.0 0.0 0.0 16.28999089631971 0.0 0.0 0.0 34.63643526849801" Properties=species:S:1:pos:R:3:initial_magmoms:R:1 pbc="T T T"
Si       1.36436895       1.34175843      -1.37860017       0.00000000
Si       1.26324063      -1.35244467       1.46366730       0.00000000
Si      -1.35213516      -1.36888128      -1.37433988       0.00000000
Si      -1.31764923       1.47786138       1.51309352       0.00000000
Si      -2.64417651      -0.08840583       2.74864513       0.00000000
Si       2.37241044       0.10019979       2.99813151       0.00000000
Si      -2.71484905       2.70089829       0.00536865       0.00000000
Si       2.71950147       2.69658144       0.00020782       0.00000000
Si       2.71678104      -2.71023735       0.00377537       0.00000000
Si       0.00843822       2.69878059      -2.73773465       0.00000000
