10
Lattice="16.28999089631971 0.0 0.0 0.0 16.28999089631971 0.0 0.0 0.0 34.63643526849801" Properties=species:S:1:pos:R:3:initial_magmoms:R:1 pbc="T T T"
Si      -2.12815818      -0.12872358      -0.90286846       0.00000000
Si       1.02628629      -2.04292890       0.39686450       0.00000000
Si       0.98859123       0.70354881      -1.99457488       0.00000000
Si       0.05113431       1.80926514       1.60127793       0.00000000
Si      -2.29747644       2.21464179      -1.08817349       0.00000000
Si       3.21901803      -1.30952052      -0.16667062       0.00000000
Si       3.21955560       0.86229486      -1.28064827       0.00000000
Si      -0.46672479       2.46808161      -2.55294916       0.00000000
Si      -2.15829468       2.65587273       1.25432457       0.00000000
Si       0.60895278      -2.49901469       2.76298462       0.00000000
