10
Lattice="16.28999089631971 0.0 0.0 0.0 16.28999089631971 0.0 0.0 0.0 34.63643526849801" Properties=species:S:1:pos:R:3:initial_magmoms:R:1 pbc="T T T"
Si      -1.04430303      -1.56458187       1.45252271       0.00000000
Si       1.64284650       0.97924403       1.57414170       0.00000000
Si      -1.85349249       1.70007164      -0.16486952       0.00000000
Si      -1.94287572       0.09887378      -1.86240217       0.00000000
Si       1.89465732      -1.25033148      -2.79717080       0.00000000
Si       2.11822128       2.55163139      -1.43242522       0.00000000
Si      -2.43160830      -2.85738885       0.09500780       0.00000000
Si      -2.36973888      -0.31113871       2.91537259       0.00000000
Si      -0.55086264       3.61338101      -0.93698537       0.00000000
Si       0.35753292       2.42487890       2.90477384       0.00000000
