10
Lattice="16.28999089631971 0.0 0.0 0.0 16.28999089631971 0.0 0.0 0.0 34.63643526849801" Properties=species:S:1:pos:R:3:initial_magmoms:R:1 pbc="T T T"
Si       1.77831414      -0.85041945       1.29740193       0.00000000
Si       0.68157360       0.66349170      -2.16472096       0.00000000
Si      -0.93149478       1.85622921       1.26838004       0.00000000
Si      -1.79224209      -1.70183259      -0.12352399       0.00000000
Si       0.43704441      -2.20418361       2.65609999       0.00000000
Si       2.77355169       1.51997103      -1.56921639       0.00000000
Si      -2.29091157       0.52629732       2.65284416       0.00000000
Si       3.16307817      -2.18668815      -0.02720001       0.00000000
Si      -0.92315430      -3.52926108       1.27833802       0.00000000
Si      -1.83154986      -2.34075897      -2.56342119       0.00000000
