10
Lattice="16.28999089631971 0.0 0.0 0.0 16.28999089631971 0.0 0.0 0.0 34.63643526849801" Properties=species:S:1:pos:R:3:initial_magmoms:R:1 pbc="T T T"
Si      -1.15090479       1.13609718      -1.78010595       0.00000000
Si       1.26623799      -1.40103285      -1.67224803       0.00000000
Si      -0.53545230      -1.51716263       1.95740996       0.00000000
Si      -2.22987294       1.34804637       0.36520678       0.00000000
Si       2.67729408      -2.22684952       0.07332537       0.00000000
Si       1.57811004      -2.51595303       2.21233427       0.00000000
Si      -1.96527773      -3.06168011       0.73418893       0.00000000
Si      -2.61733778      -0.22229334      -3.02850768       0.00000000
Si       0.17562249       2.70236439      -3.01565756       0.00000000
Si       2.83043637       2.98786293       0.03848110       0.00000000
