10
Lattice="16.28999089631971 0.0 0.0 0.0 16.28999089631971 0.0 0.0 0.0 34.63643526849801" Properties=species:S:1:pos:R:3:initial_magmoms:R:1 pbc="T T T"
Si      -1.35705474      -1.35557235      -1.35702166       0.00000000
Si       1.35773892      -1.35659862       1.35788757       0.00000000
Si      -1.35721764       1.35796698       1.35788757       0.00000000
Si       1.35798327       1.35612621      -1.36090094       0.00000000
Si       0.00091224      -2.71365173       2.71515168       0.00000000
Si      -2.71455420      -2.71460144      -0.00003464       0.00000000
Si       2.72085354      -0.00703728      -2.70836293       0.00000000
Si      -2.71594210       0.00094482       2.71387013       0.00000000
Si       0.00070047       2.71484253       2.71501313       0.00000000
Si       2.71580364      -2.71413554       0.00055418       0.00000000
