10
Lattice="16.28999089631971 0.0 0.0 0.0 16.28999089631971 0.0 0.0 0.0 34.63643526849801" Properties=species:S:1:pos:R:3:initial_magmoms:R:1 pbc="T T T"
Si       2.09197809       0.85647933       0.59550456       0.00000000
Si      -0.68157360      -0.66349170       2.16472096       0.00000000
Si       1.02294684      -1.92267612      -1.24628891       0.00000000
Si      -0.94822461       2.12015979      -0.95156732       0.00000000
Si       2.87143830       1.29150378      -1.68437079       0.00000000
Si       1.13505462       2.97952245      -1.77920540       0.00000000
Si       3.31196877      -1.22632749      -1.30181115       0.00000000
Si       3.48000012      -1.09340109       0.97121246       0.00000000
Si       0.62986914      -1.47255084      -3.51172086       0.00000000
Si       1.09674054      -1.51391115       3.46212288       0.00000000
