10
Lattice="16.28999089631971 0.0 0.0 0.0 16.28999089631971 0.0 0.0 0.0 34.63643526849801" Properties=species:S:1:pos:R:3:initial_magmoms:R:1 pbc="T T T"
Si       1.34299647       1.35741312       1.36588859       0.00000000
Si      -1.35788553       1.35557235      -1.35667529       0.00000000
Si       1.35506736      -1.35995436      -1.35639820       0.00000000
Si      -1.36041048      -1.35607734       1.36519586       0.00000000
Si      -0.00099369       2.71292031      -2.71369695       0.00000000
Si       2.71077003       2.71609686       0.00301337       0.00000000
Si       2.71391400      -0.00179190      -2.71355840       0.00000000
Si      -2.71583622      -0.00219915      -2.71393940       0.00000000
Si       2.71355562      -2.71656927       0.00526474       0.00000000
Si      -0.00117288      -2.71686249      -2.71348913       0.00000000
