10
Lattice="16.28999089631971 0.0 0.0 0.0 16.28999089631971 0.0 0.0 0.0 34.63643526849801" Properties=species:S:1:pos:R:3:initial_magmoms:R:1 pbc="T T T"
Si      -2.16316280       0.90368775      -0.44372762       0.00000000
Si       1.76773541       1.40139612       0.77810795       0.00000000
Si       0.32958905      -1.76265293       1.57606259       0.00000000
Si       0.67783667      -0.80496383      -2.14413509       0.00000000
Si       1.02740378       1.93738599       2.94080818       0.00000000
Si       2.79139901      -1.80375423      -1.88921078       0.00000000
Si       2.69056391      -2.25965825       1.50661650       0.00000000
Si      -1.31460316       2.34491292       2.79831381       0.00000000
Si      -2.52063056       2.91973815       0.76124000       0.00000000
Si       3.71668730      -0.08552250       1.28830293       0.00000000
