10
Lattice="16.28999089631971 0.0 0.0 0.0 16.28999089631971 0.0 0.0 0.0 34.63643526849801" Properties=species:S:1:pos:R:3:initial_magmoms:R:1 pbc="T T T"
Si       0.30690360       0.91136034       2.18237373       0.00000000
Si       1.96069698      -0.13846500      -1.35310774       0.00000000
Si      -0.58287249      -2.32212321       0.34373218       0.00000000
Si      -1.67329251       1.53718956      -0.95423432       0.00000000
Si      -1.14407928      -0.52636248       3.34515415       0.00000000
Si       1.11536001      -3.33743004      -0.94207693       0.00000000
Si      -0.24301422      -2.60125236       2.65796689       0.00000000
Si      -0.32741271       3.17782062       2.02741024       0.00000000
Si      -3.71633544       0.71470746       0.03768446       0.00000000
Si       0.97420716      -0.74054340      -3.58726297       0.00000000
