10
Lattice="16.28999089631971 0.0 0.0 0.0 16.28999089631971 0.0 0.0 0.0 34.63643526849801" Properties=species:S:1:pos:R:3:initial_magmoms:R:1 pbc="T T T"
Si      -2.01385125       0.29240550      -1.15813913       0.00000000
Si       1.45098288       1.43772282      -1.16278042       0.00000000
Si       0.90106506      -2.07488988      -0.68718726       0.00000000
Si      -0.13131369       0.60061230       2.33723332       0.00000000
Si      -2.58445737       2.29744386       0.03041081       0.00000000
Si       0.56120679      -1.79576073      -3.00142198       0.00000000
Si       1.14407928       0.52636248      -3.34515415       0.00000000
Si      -0.22156029      -3.48563646       0.79078490       0.00000000
Si       1.75431897      -0.60013989       3.08517292       0.00000000
Si       3.31841961       1.44285417       0.31765093       0.00000000
