10
Lattice="16.28999089631971 0.0 0.0 0.0 16.28999089631971 0.0 0.0 0.0 34.63643526849801" Properties=species:S:1:pos:R:3:initial_magmoms:R:1 pbc="T T T"
Si       0.43528509      -2.24290494      -0.62927511       0.00000000
Si       1.86953814       1.37964897      -0.53603377       0.00000000
Si      -1.68345747       0.99797427      -1.41621536       0.00000000
Si       1.06662033       0.50319810       2.27783180       0.00000000
Si      -3.26505357      -0.23838786       1.62670109       0.00000000
Si       3.14989956       1.36256076       1.45019372       0.00000000
Si      -2.19214530       3.16560312      -0.50586542       0.00000000
Si      -1.28995623      -3.66380019       0.25215339       0.00000000
Si      -0.90618012       0.58238379      -3.77312218       0.00000000
Si       1.27918854       3.62017557      -1.00546164       0.00000000
