10
Lattice="16.28999089631971 0.0 0.0 0.0 16.28999089631971 0.0 0.0 0.0 34.63643526849801" Properties=species:S:1:pos:R:3:initial_magmoms:R:1 pbc="T T T"
Si      -1.58760711       0.29339919      -1.70525657       0.00000000
Si      -1.47255084      -1.23649245       1.50104003       0.00000000
Si       0.23169267       2.19605394       1.10168171       0.00000000
Si       2.00065635      -1.19692404      -1.08131548       0.00000000
Si      -0.39242610       0.13527216      -3.71333966       0.00000000
Si      -2.46014838       2.46163144      -1.57800224       0.00000000
Si      -3.42704133       0.26534781       1.97538628       0.00000000
Si       1.32253623      -1.60419033      -3.41550079       0.00000000
Si       1.17007812       3.84692327      -0.38207473       0.00000000
Si      -1.91865249      -3.51547974       0.63679122       0.00000000
