10
Lattice="16.28999089631971 0.0 0.0 0.0 16.28999089631971 0.0 0.0 0.0 34.63643526849801" Properties=species:S:1:pos:R:3:initial_magmoms:R:1 pbc="T T T"
Si      -0.13229109       1.90718011      -1.41437962       0.00000000
Si      -2.14669620      -1.05981111       0.09140560       0.00000000
Si      -0.23312619       1.45127610       1.98144766       0.00000000
Si       1.95449049      -1.50184026      -0.47434625       0.00000000
Si       1.58210109       3.15557241      -0.37916527       0.00000000
Si      -1.74764007      -3.13753545       1.01706485       0.00000000
Si      -2.59410105       1.94828141       2.05089375       0.00000000
Si       0.46779993       0.19982943       3.82625451       0.00000000
Si       2.85426864      -2.14019649       1.64304950       0.00000000
Si       3.42704133      -0.26534781      -1.97538628       0.00000000
