10
Lattice="16.28999089631971 0.0 0.0 0.0 16.28999089631971 0.0 0.0 0.0 34.63643526849801" Properties=species:S:1:pos:R:3:initial_magmoms:R:1 pbc="T T T"
Si       1.35202113      -1.35252427      -1.35511665       0.00000000
Si      -1.35959598      -1.35478858       1.35681384       0.00000000
Si       1.35547461       1.35991127       1.35688311       0.00000000
Si      -1.35997065       1.35904464      -1.36346404       0.00000000
Si       2.71143792      -2.71141978      -0.00041564       0.00000000
Si      -0.00205254      -2.71195735       2.71393940       0.00000000
Si       2.71322982       0.00267677       2.71362767       0.00000000
Si      -2.71643895       0.00216180       2.71380086       0.00000000
Si      -2.71780731      -2.71273927      -0.00013855       0.00000000
Si      -0.00144981       2.71722991       2.71383549       0.00000000
