10
Lattice="16.28999089631971 0.0 0.0 0.0 16.28999089631971 0.0 0.0 0.0 34.63643526849801" Properties=species:S:1:pos:R:3:initial_magmoms:R:1 pbc="T T T"
Si       1.74794958       0.40133673      -1.46377121       0.00000000
Si      -0.00742824       1.76503779       1.57485032       0.00000000
Si      -1.54468296       0.52328367      -1.73539029       0.00000000
Si      -0.33746364      -2.22715414       0.79909764       0.00000000
Si      -3.34354531      -0.65443446      -0.97127546       0.00000000
Si      -2.14459805      -2.73120095      -0.71631652       0.00000000
Si       1.57863132       2.74470210      -1.64907624       0.00000000
Si       1.71781308       3.18593304       0.69342182       0.00000000
Si       1.41206607      -0.75781080      -3.47853914       0.00000000
Si      -0.91608444      -0.53113545      -3.73900528       0.00000000
