10
Lattice="16.28999089631971 0.0 0.0 0.0 16.28999089631971 0.0 0.0 0.0 34.63643526849801" Properties=species:S:1:pos:R:3:initial_magmoms:R:1 pbc="T T T"
Si       0.14851593       2.25614871      -0.46444022       0.00000000
Si       1.20992346      -0.81793719       1.86323344       0.00000000
Si      -2.31089940      -0.11836314      -0.52941821       0.00000000
Si       0.44859402      -1.79681958      -1.49546356       0.00000000
Si      -1.58071644      -1.25999892      -2.63742747       0.00000000
Si      -2.56642434      -2.22282263       0.48283218       0.00000000
Si      -0.48979143      -3.44768890      -0.01170712       0.00000000
Si       3.46742424      -0.46641528       1.07722838       0.00000000
Si      -1.54971657       3.27145554       0.82136888       0.00000000
Si      -0.68629770       2.72914515      -2.55506198       0.00000000
