10
Lattice="16.28999089631971 0.0 0.0 0.0 16.28999089631971 0.0 0.0 0.0 34.63643526849801" Properties=species:S:1:pos:R:3:initial_magmoms:R:1 pbc="T T T"
Si       2.18727459      -0.87033953       0.39239639       0.00000000
Si      -1.09019196      -0.74513459      -2.00406526       0.00000000
Si      -0.68781267      -0.63328745       2.23571387       0.00000000
Si      -0.26666730       2.37367454      -0.44237680       0.00000000
Si      -0.07869699      -2.92644704      -2.16110695       0.00000000
Si       3.41005086      -0.24857302      -1.49525575       0.00000000
Si       0.21543525       0.28758692      -3.83172707       0.00000000
Si       2.95124301      -0.08544431       2.47307750       0.00000000
Si      -2.43651159       2.64793298      -1.46907059       0.00000000
Si      -0.18362088       1.22343764       3.71534858       0.00000000
