10
Lattice="16.28999089631971 0.0 0.0 0.0 16.28999089631971 0.0 0.0 0.0 34.63643526849801" Properties=species:S:1:pos:R:3:initial_magmoms:R:1 pbc="T T T"
Si       2.23515090       0.46911942       0.03325100       0.00000000
Si      -0.94213215       2.04229033       0.67873596       0.00000000
Si      -0.76396842      -0.78489522      -2.08068110       0.00000000
Si      -0.28768140      -1.67247216       1.73899248       0.00000000
Si      -2.37047193      -2.36776194       0.73907267       0.00000000
Si       2.21100912       1.40197930       2.27907871       0.00000000
Si      -0.12070890      -3.10030695      -1.82818135       0.00000000
Si       0.09744678       2.31988822       2.76225726       0.00000000
Si      -3.13486389       1.30888195       1.24227108       0.00000000
Si       3.22193394      -1.65991257      -0.43880924       0.00000000
