10
Lattice="16.28999089631971 0.0 0.0 0.0 16.28999089631971 0.0 0.0 0.0 34.63643526849801" Properties=species:S:1:pos:R:3:initial_magmoms:R:1 pbc="T T T"
Si       1.61616348      -1.63348368      -0.37234189       0.00000000
Si      -2.29653162      -0.01525884      -0.63242702       0.00000000
Si      -0.15263730      -0.53268952       2.35572919       0.00000000
Si       1.35311256       1.45183322      -1.47856098       0.00000000
Si      -1.87919811       0.44082695      -2.99854715       0.00000000
Si      -2.06358462       1.14934421       2.70805159       0.00000000
Si       0.96798438      -2.54052717      -2.50182575       0.00000000
Si       0.31353363       1.17423533      -3.56208227       0.00000000
Si      -3.32825877       1.69957154       0.82344707       0.00000000
Si       3.85675524      -0.90429211      -0.05877806       0.00000000
