10
Lattice="16.28999089631971 0.0 0.0 0.0 16.28999089631971 0.0 0.0 0.0 34.63643526849801" Properties=species:S:1:pos:R:3:initial_magmoms:R:1 pbc="T T T"
Si      -1.35568638       1.35249354       1.36031212       0.00000000
Si      -1.36474362      -1.37367054      -1.34868812       0.00000000
Si       1.36182771      -1.36461330       1.36090094       0.00000000
Si       1.38199473       1.36493910      -1.35525866       0.00000000
Si       0.02002041      -2.70993924      -2.67329006       0.00000000
Si      -2.70801702       2.70959715       0.00207819       0.00000000
Si       2.71555929       2.71070487       0.00782784       0.00000000
Si       0.00316026       2.71077003       2.71844214       0.00000000
Si      -2.71182888      -0.00472410       2.71854605       0.00000000
Si      -2.70601335      -2.72743470       0.01000994       0.00000000
