10
Lattice="16.28999089631971 0.0 0.0 0.0 16.28999089631971 0.0 0.0 0.0 34.63643526849801" Properties=species:S:1:pos:R:3:initial_magmoms:R:1 pbc="T T T"
Si       1.67897772       0.86187132      -1.44960490       0.00000000
Si      -2.18615058       0.33708897      -0.88603515       0.00000000
Si       0.37308987       1.38666996       1.92260032       0.00000000
Si       0.28561257      -2.43206442       0.20560199       0.00000000
Si       0.97339266      -0.39905613       3.35267026       0.00000000
Si       0.59639319       0.82932390      -3.54898969       0.00000000
Si       1.94246847       3.15618750      -0.95267568       0.00000000
Si      -2.55417426      -1.45894869      -2.45846091       0.00000000
Si       2.05715007       3.04455213       1.41129698       0.00000000
Si       2.36791440      -2.96828235       1.07279491       0.00000000
