10
Lattice="16.28999089631971 0.0 0.0 0.0 16.28999089631971 0.0 0.0 0.0 34.63643526849801" Properties=species:S:1:pos:R:3:initial_magmoms:R:1 pbc="T T T"
Si      -1.91256003       1.15844706       0.70505967       0.00000000
Si       1.81615581       1.46970009      -0.24865511       0.00000000
Si       0.91351062      -1.10309364       1.89537607       0.00000000
Si      -0.35833113      -1.51133733      -1.80757266       0.00000000
Si      -0.84465279      -0.31814370       3.28426326       0.00000000
Si       3.51978030      -0.25549236      -0.40012032       0.00000000
Si       1.12837572      -0.56330820      -3.39572337       0.00000000
Si      -3.52675242      -0.56436705       1.07435355       0.00000000
Si       0.68071023      -3.40555482       1.38992629       0.00000000
Si      -0.35886870      -3.68315271      -0.69359500       0.00000000
