10
Lattice="16.28999089631971 0.0 0.0 0.0 16.28999089631971 0.0 0.0 0.0 34.63643526849801" Properties=species:S:1:pos:R:3:initial_magmoms:R:1 pbc="T T T"
Si      -2.23096437      -0.15874605      -0.71392660       0.00000000
Si       1.48670685       0.94802913      -1.58815072       0.00000000
Si       0.35833113       1.51133733       1.80757266       0.00000000
Si      -0.00053757      -2.17181538       1.11397765       0.00000000
Si      -3.21955560      -0.86229486       1.28064827       0.00000000
Si       3.56900868       0.41181120      -0.72095780       0.00000000
Si      -2.27631573      -1.75498686      -2.48021261       0.00000000
Si       1.34649882      -0.34195968      -3.57084529       0.00000000
Si       1.03904136      -1.89421749       3.19749895       0.00000000
Si       1.27184175       0.40824369       3.70294873       0.00000000
