10
Lattice="16.28999089631971 0.0 0.0 0.0 16.28999089631971 0.0 0.0 0.0 34.63643526849801" Properties=species:S:1:pos:R:3:initial_magmoms:R:1 pbc="T T T"
Si       0.08535960      -1.34961021       1.92197687       0.00000000
Si      -0.67924413       1.53600039       1.68980871       0.00000000
Si       2.35519191       0.43688151      -0.04388439       0.00000000
Si      -0.93344958      -0.84408264      -2.07029017       0.00000000
Si       0.87687441       0.53281332       3.43472402       0.00000000
Si      -1.82565288       1.09128339      -3.20633124       0.00000000
Si       3.64641876      -1.49617134       0.13057943       0.00000000
Si       0.90018540      -1.58612472      -3.51625824       0.00000000
Si       1.09841841      -3.45432708       1.61301969       0.00000000
Si       3.04378650       2.41579071       0.98984060       0.00000000
