10
Lattice="16.28999089631971 0.0 0.0 0.0 16.28999089631971 0.0 0.0 0.0 34.63643526849801" Properties=species:S:1:pos:R:3:initial_magmoms:R:1 pbc="T T T"
Si       1.96718040       1.37103156      -0.04308775       0.00000000
Si      -1.73638368       1.68801867      -0.09483461       0.00000000
Si      -0.77946021      -0.43502445       2.27987535       0.00000000
Si      -0.62737677      -1.04124051      -2.19664395       0.00000000
Si       0.44053047      -2.51783127       0.38255964       0.00000000
Si      -2.87143830      -1.29150378       1.68437079       0.00000000
Si       0.60856182      -2.38490487       2.65558325       0.00000000
Si       1.23579198       3.10402692      -1.54080268       0.00000000
Si      -1.84849146      -3.21417990       0.43808188       0.00000000
Si      -1.32773274       0.77344920      -3.53305692       0.00000000
