10
Lattice="16.28999089631971 0.0 0.0 0.0 16.28999089631971 0.0 0.0 0.0 34.63643526849801" Properties=species:S:1:pos:R:3:initial_magmoms:R:1 pbc="T T T"
Si      -1.35050616      -1.33408584       1.37567685       0.00000000
Si      -1.42254054       1.31914369      -1.32568606       0.00000000
Si       1.36085031       1.38158815       1.37096629       0.00000000
Si       1.33349940      -1.29888315      -1.59817451       0.00000000
Si       0.31750839       2.34130373      -2.44764845       0.00000000
Si       2.22845571       0.65927000      -2.79997085       0.00000000
Si      -2.72002275      -2.66735718      -0.01066456       0.00000000
Si       2.72134224      -2.67322158      -0.01315493       0.00000000
Si       0.00301365      -2.69019576       2.73429178       0.00000000
Si      -2.70904329       0.02468038       2.73321805       0.00000000
