10
Lattice="16.28999089631971 0.0 0.0 0.0 16.28999089631971 0.0 0.0 0.0 34.63643526849801" Properties=species:S:1:pos:R:3:initial_magmoms:R:1 pbc="T T T"
Si      -1.35351981       1.35610992      -1.35861493       0.00000000
Si      -1.35594702      -1.35731538       1.35667529       0.00000000
Si       1.35821133       1.35795069       1.35695238       0.00000000
Si       1.35923760      -1.35812988      -1.36412213       0.00000000
Si      -0.00301365       2.69019576      -2.73429178       0.00000000
Si      -2.71205694       2.71487614      -0.00107373       0.00000000
Si      -2.71407690      -0.00001629       2.71438968       0.00000000
Si       0.00136836       2.71490106       2.71393940       0.00000000
Si       0.00083079      -2.71472850       2.71452822       0.00000000
Si      -2.71467963      -2.71469592      -0.00051955       0.00000000
