10
Lattice="16.28999089631971 0.0 0.0 0.0 16.28999089631971 0.0 0.0 0.0 34.63643526849801" Properties=species:S:1:pos:R:3:initial_magmoms:R:1 pbc="T T T"
Si      -1.35684297       1.35695037       1.35698702       0.00000000
Si       1.35959598       1.35478858      -1.35681384       0.00000000
Si       1.35754344      -1.35716877       1.35712557       0.00000000
Si      -1.35821133      -1.35795069      -1.35695238       0.00000000
Si       2.71161711       0.00226431      -2.71193049       0.00000000
Si       0.00061902       2.71257889       2.71435504       0.00000000
Si      -2.71173114      -0.00184077      -2.71556732       0.00000000
Si      -2.71435383      -0.00164529       2.71421649       0.00000000
Si       2.71480995       0.00216657       2.71383549       0.00000000
Si      -2.71393029       2.71500284       0.00038100       0.00000000
