10
Lattice="16.28999089631971 0.0 0.0 0.0 16.28999089631971 0.0 0.0 0.0 34.63643526849801" Properties=species:S:1:pos:R:3:initial_magmoms:R:1 pbc="T T T"
Si      -1.35679410      -1.35645201       1.35847639       0.00000000
Si      -1.35754344       1.35716877      -1.35712557       0.00000000
Si       1.35770634      -1.35819504      -1.35684847       0.00000000
Si       1.35726651       1.35933534       1.35670993       0.00000000
Si       0.00205254       2.71195735      -2.71393940       0.00000000
Si       0.00130320       2.71327869       2.71296958       0.00000000
Si       2.71349046       0.00053757      -2.71435504       0.00000000
Si      -2.71438641       2.71411914      -0.00013855       0.00000000
Si       0.00070047      -2.71575477      -2.71400868       0.00000000
Si      -2.71575477      -0.00078192      -2.71407795       0.00000000
