10
Lattice="16.28999089631971 0.0 0.0 0.0 16.28999089631971 0.0 0.0 0.0 34.63643526849801" Properties=species:S:1:pos:R:3:initial_magmoms:R:1 pbc="T T T"
Si      -1.27998675       1.35107631      -1.39190057       0.00000000
Si       0.87969258       1.79776440       1.23381979       0.00000000
Si      -1.74957858      -0.73015038       1.41230144       0.00000000
Si       1.43786943      -1.37197638      -1.35210328       0.00000000
Si       1.15944075       0.75482973       3.36039419       0.00000000
Si      -2.70518256      -2.59902063       0.15039149       0.00000000
Si      -2.44514529       2.86574724      -0.01357749       0.00000000
Si      -3.46454091       1.00931211       1.11446256       0.00000000
Si      -2.63933838      -0.01296684      -2.73070345       0.00000000
Si       2.73536793       2.69013060       0.02912926       0.00000000
