10
Lattice="16.28999089631971 0.0 0.0 0.0 16.28999089631971 0.0 0.0 0.0 34.63643526849801" Properties=species:S:1:pos:R:3:initial_magmoms:R:1 pbc="T T T"
Si      -1.11663063      -1.71830245       1.21012776       0.00000000
Si       1.74177797       1.17246135       1.18931471       0.00000000
Si      -1.78838136       1.77045259       0.03622800       0.00000000
Si       1.62720225      -1.20599824      -1.50013468       0.00000000
Si      -1.58858451       0.02947024      -2.62654682       0.00000000
Si      -2.41031727      -0.24128815       2.58588427       0.00000000
Si       0.32617083       2.50172698       2.58755721       0.00000000
Si      -0.02155167      -1.72488361      -3.19538131       0.00000000
Si      -2.52193635      -2.91460747      -0.37884873       0.00000000
Si       0.31458891      -2.94840922       2.61722334       0.00000000
