10
Lattice="16.28999089631971 0.0 0.0 0.0 16.28999089631971 0.0 0.0 0.0 34.63643526849801" Properties=species:S:1:pos:R:3:initial_magmoms:R:1 pbc="T T T"
Si      -1.35801585      -1.35529877       1.35702166       0.00000000
Si       1.35615879       1.35711396       1.35764511       0.00000000
Si      -1.35775521       1.35723451      -1.35674456       0.00000000
Si       1.35773892      -1.35814952      -1.35674456       0.00000000
Si      -2.71322982      -0.00267677      -2.71362767       0.00000000
Si      -2.71397916      -0.00135542       2.71328131       0.00000000
Si      -0.00179190      -2.71409654      -2.71404331       0.00000000
Si       2.71468455      -0.00047428      -2.71442431       0.00000000
Si      -2.71467963       2.71455314       0.00020782       0.00000000
Si       2.71494946       2.71439024       0.00062346       0.00000000
