10
Lattice="16.28999089631971 0.0 0.0 0.0 16.28999089631971 0.0 0.0 0.0 34.63643526849801" Properties=species:S:1:pos:R:3:initial_magmoms:R:1 pbc="T T T"
Si      -1.35500220       1.35438318      -1.35092564       0.00000000
Si       1.35806472       1.35568638       1.35809539       0.00000000
Si      -1.35720135      -1.35871958       1.35806075       0.00000000
Si       1.35897696      -1.35833839      -1.36051994       0.00000000
Si      -2.70360243       0.01453068      -2.70282803       0.00000000
Si      -0.01373247       2.70526401      -2.70816551       0.00000000
Si      -2.71331127       2.71150308       0.00034636       0.00000000
Si       0.00042354       2.71375110       2.71535950       0.00000000
Si      -2.71412577      -0.00140094       2.71501313       0.00000000
Si       2.71597585       2.71461447       0.00062346       0.00000000
