10
Lattice="16.28999089631971 0.0 0.0 0.0 16.28999089631971 0.0 0.0 0.0 34.63643526849801" Properties=species:S:1:pos:R:3:initial_magmoms:R:1 pbc="T T T"
Si      -0.84675420      -1.78565183      -1.36536904       0.00000000
Si       0.38726217      -0.89083168       2.20017687       0.00000000
Si       1.88097372       0.86444514      -1.24653137       0.00000000
Si      -1.59902640       1.84673214       0.02611589       0.00000000
Si       0.41216958       1.25810928       3.17460425       0.00000000
Si      -2.14663104      -0.41415044      -2.76977337       0.00000000
Si       0.59056137       2.29249170      -2.75158923       0.00000000
Si      -3.37965372       1.00020600      -1.31864446       0.00000000
Si      -2.70242955      -2.67801803      -0.16067851       0.00000000
Si      -3.24597798      -0.06270021       2.23134968       0.00000000
