10
Lattice="16.28999089631971 0.0 0.0 0.0 16.28999089631971 0.0 0.0 0.0 34.63643526849801" Properties=species:S:1:pos:R:3:initial_magmoms:R:1 pbc="T T T"
Si      -1.41967709       1.24242201      -1.36914441       0.00000000
Si      -1.36191275      -1.33814205       1.35321511       0.00000000
Si       1.35069872       1.37352393       1.35103301       0.00000000
Si       1.29239519      -1.39452174      -1.45359848       0.00000000
Si       2.11501575       0.49246299      -2.68112275       0.00000000
Si      -2.14161731      -0.71302959      -2.64267282       0.00000000
Si       0.23836865       2.40314967      -2.53233008       0.00000000
Si      -0.39723524      -2.44626930      -2.74341291       0.00000000
Si      -0.00735736      -2.69645112       2.71013286       0.00000000
Si       2.72209518      -2.69604387      -0.03444942       0.00000000
