10
Lattice="16.28999089631971 0.0 0.0 0.0 16.28999089631971 0.0 0.0 0.0 34.63643526849801" Properties=species:S:1:pos:R:3:initial_magmoms:R:1 pbc="T T T"
Si      -1.35872446      -1.35702216       1.35598256       0.00000000
Si       1.35791811       1.35687555       1.35712557       0.00000000
Si       1.35721764      -1.35796698      -1.35788757       0.00000000
Si      -1.35776661       1.35896067      -1.35691775       0.00000000
Si      -0.00008145       2.71466334      -2.71279640       0.00000000
Si       0.00016290      -2.71353933      -2.71490922       0.00000000
Si       2.71495656      -2.71456560       0.00000000       0.00000000
Si       2.71448415       2.71513575      -0.00006927       0.00000000
Si      -2.71479154       0.00092853      -2.71508241       0.00000000
Si       2.71384884      -0.00014661       2.71626004       0.00000000
