10
Lattice="16.28999089631971 0.0 0.0 0.0 16.28999089631971 0.0 0.0 0.0 34.63643526849801" Properties=species:S:1:pos:R:3:initial_magmoms:R:1 pbc="T T T"
Si      -0.30910275      -0.84403377      -2.12841014       0.00000000
Si       2.16440247       0.97370217       0.08129176       0.00000000
Si      -1.70362449       1.72519245       0.15146522       0.00000000
Si       0.61555023      -2.14759215       1.03071162       0.00000000
Si      -0.76429422       0.38548656       3.34033968       0.00000000
Si       1.26047133      -0.82461609       3.11596473       0.00000000
Si      -0.97507053       2.47456503       2.24697072       0.00000000
Si      -3.51978030       0.25549236       0.40012032       0.00000000
Si      -2.60626968      -0.84760128       2.29549639       0.00000000
Si       3.16725723       0.08249256      -1.80272355       0.00000000
