10
Lattice="16.28999089631971 0.0 0.0 0.0 16.28999089631971 0.0 0.0 0.0 34.63643526849801" Properties=species:S:1:pos:R:3:initial_magmoms:R:1 pbc="T T T"
Si       2.20253832       0.41651901      -0.65861218       0.00000000
Si      -0.26349075      -2.29431618      -0.49692921       0.00000000
Si       0.11468160      -0.11163537       2.36397266       0.00000000
Si      -1.56761928       1.66027680      -0.77460967       0.00000000
Si      -2.35913409      -0.22214673      -2.28735683       0.00000000
Si       3.04083054      -1.02066624       0.97754466       0.00000000
Si       1.98503424      -2.93860197       0.01517077       0.00000000
Si      -0.54421632       2.07246267       2.92785415       0.00000000
Si      -2.32267707       2.43929718       1.35348874       0.00000000
Si      -1.56937860      -1.76951754       2.87527601       0.00000000
