10
Lattice="16.28999089631971 0.0 0.0 0.0 16.28999089631971 0.0 0.0 0.0 34.63643526849801" Properties=species:S:1:pos:R:3:initial_magmoms:R:1 pbc="T T T"
Si       0.47490304      -0.65992419       2.18859587       0.00000000
Si      -0.01920591      -1.96742475      -1.31535400       0.00000000
Si       2.36342555      -0.11212407      -0.36198559       0.00000000
Si      -1.61194437       1.77367149      -0.50087777       0.00000000
Si       1.98667043      -2.87920863      -0.34362827       0.00000000
Si      -0.11541465       3.60799065      -1.08612994       0.00000000
Si       1.55153195       1.09250514       3.31060225       0.00000000
Si      -2.61579933       2.41826679       1.73040264       0.00000000
Si       3.05957870       0.52478235      -2.47619478       0.00000000
Si      -1.18314270      -1.82065185       3.35178153       0.00000000
