10
Lattice="16.28999089631971 0.0 0.0 0.0 16.28999089631971 0.0 0.0 0.0 34.63643526849801" Properties=species:S:1:pos:R:3:initial_magmoms:R:1 pbc="T T T"
Si       1.43121954      -1.23010677       1.40709558       0.00000000
Si       1.11663063       1.71830245      -1.21012776       0.00000000
Si      -1.29368664       1.47701430       1.37575651       0.00000000
Si      -1.40530572      -1.19630502      -1.58897649       0.00000000
Si      -2.59582779      -2.57803911      -0.04171961       0.00000000
Si       2.76202556      -2.52206667      -0.00877688       0.00000000
Si      -0.67175073       3.48875504      -1.17389976       0.00000000
Si       0.08399124      -2.58784569       2.74994746       0.00000000
Si      -2.63696004       0.13012452       2.75711721       0.00000000
Si       2.74383288       0.51230421      -2.71026244       0.00000000
