10
Lattice="16.28999089631971 0.0 0.0 0.0 16.28999089631971 0.0 0.0 0.0 34.63643526849801" Properties=species:S:1:pos:R:3:initial_magmoms:R:1 pbc="T T T"
Si      -1.35700587      -1.35755973      -1.35716020       0.00000000
Si       1.35578412       1.35873261      -1.35750657       0.00000000
Si       1.35786924      -1.35757602       1.35681384       0.00000000
Si      -1.35770634       1.35819504       1.35684847       0.00000000
Si      -0.00255753      -2.71438641      -2.71099530       0.00000000
Si      -2.71495656      -2.71432125      -0.00038100       0.00000000
Si      -2.71450044       0.00174303       2.71532486       0.00000000
Si      -0.00363267       2.71762812      -2.71220758       0.00000000
Si       2.71531494       2.71467963      -0.00020782       0.00000000
Si       0.00071676      -2.71520091       2.71494386       0.00000000
