10
Lattice="16.28999089631971 0.0 0.0 0.0 16.28999089631971 0.0 0.0 0.0 34.63643526849801" Properties=species:S:1:pos:R:3:initial_magmoms:R:1 pbc="T T T"
Si      -0.68859459      -1.97890920      -1.03372499       0.00000000
Si      -0.80581743       0.08379576       2.20880135       0.00000000
Si      -1.49524281       1.55059623      -1.01242357       0.00000000
Si       2.34504717       0.05584212       0.45075882       0.00000000
Si      -3.40868250       1.38460113       0.36562242       0.00000000
Si       2.48712040      -0.96112629       2.61034177       0.00000000
Si       0.58433859      -2.04027363      -3.07460880       0.00000000
Si      -2.16691209      -1.88297739       2.44488342       0.00000000
Si      -0.94626981       3.64790834      -0.18229166       0.00000000
Si       1.00558170       0.48832533       3.65785206       0.00000000
