10
Lattice="16.28999089631971 0.0 0.0 0.0 16.28999089631971 0.0 0.0 0.0 34.63643526849801" Properties=species:S:1:pos:R:3:initial_magmoms:R:1 pbc="T T T"
Si       0.54897300       2.09731211       0.83013191       0.00000000
Si      -1.91343969      -0.16599510       1.37804598       0.00000000
Si       1.49524281      -1.55059623       1.01242357       0.00000000
Si      -0.36660645       0.12784392      -2.41412625       0.00000000
Si      -0.84721032       0.28262500       3.44525351       0.00000000
Si       0.68942538      -1.46680047       3.22122492       0.00000000
Si       0.80664822      -3.52950543      -0.02130142       0.00000000
Si      -1.18594458       3.49914806       0.08818441       0.00000000
Si      -2.22778782      -2.43038655       1.71239168       0.00000000
Si       1.66664619       1.03273128      -3.33555985       0.00000000
