10
Lattice="16.28999089631971 0.0 0.0 0.0 16.28999089631971 0.0 0.0 0.0 34.63643526849801" Properties=species:S:1:pos:R:3:initial_magmoms:R:1 pbc="T T T"
Si      -1.53663570       1.74942547       0.22402859       0.00000000
Si       0.80581743      -0.08379576      -2.20880135       0.00000000
Si       1.81139913       0.40452957       1.44905072       0.00000000
Si      -1.36109466      -1.96677315       0.23608207       0.00000000
Si      -2.11615245      -1.18775277       2.36418048       0.00000000
Si      -2.91721320      -0.96358608      -1.50883324       0.00000000
Si      -2.60286507       1.30080537      -1.84317893       0.00000000
Si       3.29293783      -1.04492205       0.40154042       0.00000000
Si      -0.68942538       1.46680047      -3.22122492       0.00000000
Si       3.15086460      -0.02795364      -1.75804253       0.00000000
