10
Lattice="16.28999089631971 0.0 0.0 0.0 16.28999089631971 0.0 0.0 0.0 34.63643526849801" Properties=species:S:1:pos:R:3:initial_magmoms:R:1 pbc="T T T"
Si       1.70860990      -0.25480818       1.59937293       0.00000000
Si       0.58490874       0.15188796      -2.30450187       0.00000000
Si      -0.98678304       2.12903199       0.47206024       0.00000000
Si      -1.56418209      -1.80722889       0.18499330       0.00000000
Si       2.88620097       1.75046217       1.12880206       0.00000000
Si      -3.22193394       1.65991257       0.43880924       0.00000000
Si       2.72600348      -2.35217826       1.04207237       0.00000000
Si      -2.17916217      -1.99762641       2.50199894       0.00000000
Si      -3.34264284      -1.44039438      -1.38937210       0.00000000
Si      -1.22649039      -0.25264161      -3.75355259       0.00000000
