10
Lattice="16.28999089631971 0.0 0.0 0.0 16.28999089631971 0.0 0.0 0.0 34.63643526849801" Properties=species:S:1:pos:R:3:initial_magmoms:R:1 pbc="T T T"
Si      -1.19052207      -1.38173409       1.54725688       0.00000000
Si       1.40530572       1.19630502       1.58897649       0.00000000
Si       1.00385496      -0.64459530      -2.23128041       0.00000000
Si      -1.30723992       2.21488614      -2.56126191       0.00000000
Si      -2.92873023      -2.30163039       0.28017481       0.00000000
Si       0.93335184       2.94407771      -2.24769809       0.00000000
Si       2.52193635       2.91460747       0.37884873       0.00000000
Si      -2.58315417      -0.01681128       2.95362509       0.00000000
Si       2.50038468       1.18972386      -2.81653258       0.00000000
Si       2.61579933      -2.41826679      -1.73040264       0.00000000
