10
Lattice="16.28999089631971 0.0 0.0 0.0 16.28999089631971 0.0 0.0 0.0 34.63643526849801" Properties=species:S:1:pos:R:3:initial_magmoms:R:1 pbc="T T T"
Si      -1.32374169       1.36335897       1.43450687       0.00000000
Si       1.38655593      -1.38531789       1.42289673       0.00000000
Si       1.35146727       1.35586557      -1.51105832       0.00000000
Si      -1.91539449      -0.89088381      -1.22947083       0.00000000
Si       2.05139970      -0.45789561      -2.96177159       0.00000000
Si      -2.67971152      -0.00982287       2.80268493       0.00000000
Si      -2.71541268       2.77223220       0.04132822       0.00000000
Si       0.03321531       2.70404226       2.80303129       0.00000000
Si      -2.73801505      -2.77786854      -0.00194657       0.00000000
Si       2.74059702       2.77956270      -0.09860999       0.00000000
