10
Lattice="16.28999089631971 0.0 0.0 0.0 16.28999089631971 0.0 0.0 0.0 34.63643526849801" Properties=species:S:1:pos:R:3:initial_magmoms:R:1 pbc="T T T"
Si       1.35665401      -1.35624024       1.36138585       0.00000000
Si      -1.35069872      -1.37352393      -1.35103301       0.00000000
Si      -1.35861111       1.35785295       1.35961939       0.00000000
Si       1.35596983       1.37318184      -1.36817806       0.00000000
Si       2.70685066      -2.70542691       0.00467592       0.00000000
Si      -2.71261147      -2.71166598       0.00218210       0.00000000
Si       2.71292683       2.71386513       0.00034636       0.00000000
Si      -0.00103116      -2.71194291       2.71726450       0.00000000
Si       2.71281280       0.00175932       2.71698741       0.00000000
Si      -2.71373548       2.71627605      -0.00263237       0.00000000
