10
Lattice="16.28999089631971 0.0 0.0 0.0 16.28999089631971 0.0 0.0 0.0 34.63643526849801" Properties=species:S:1:pos:R:3:initial_magmoms:R:1 pbc="T T T"
Si      -1.35415838       1.35630540      -1.36058921       0.00000000
Si       1.35868374       1.35827649       1.36100485       0.00000000
Si       1.36135530      -1.36076886      -1.36048530       0.00000000
Si      -1.36193197      -1.35865116       1.38261800       0.00000000
Si      -2.71377081       2.71303434      -0.00284019       0.00000000
Si      -2.71168086      -0.00219915      -2.71799187       0.00000000
Si       0.00325800       2.71215468      -2.71813041       0.00000000
Si      -2.71098899      -2.72173320      -0.00176646       0.00000000
Si       2.71909422       2.71435383      -0.00419101       0.00000000
Si       2.71728603      -2.71779102      -0.00135082       0.00000000
