10
Lattice="16.28999089631971 0.0 0.0 0.0 16.28999089631971 0.0 0.0 0.0 34.63643526849801" Properties=species:S:1:pos:R:3:initial_magmoms:R:1 pbc="T T T"
Si       1.35234856       1.34589609      -1.38275654       0.00000000
Si      -1.36179692      -1.36730115      -1.38500791       0.00000000
Si       1.37521972      -1.35562122       1.40828361       0.00000000
Si      -1.38418315       1.37715660       1.53560722       0.00000000
Si      -2.31891964      -0.40754322       2.75224732       0.00000000
Si      -0.20051361      -2.33916255       2.91375711       0.00000000
Si      -2.71735675       2.69488728      -0.00031173       0.00000000
Si       2.70839332       2.70936909       0.00117764       0.00000000
Si       2.71065763      -2.72205900      -0.02116287       0.00000000
Si      -2.71457116      -2.71844262      -0.02885217       0.00000000
