10
Lattice="16.28999089631971 0.0 0.0 0.0 16.28999089631971 0.0 0.0 0.0 34.63643526849801" Properties=species:S:1:pos:R:3:initial_magmoms:R:1 pbc="T T T"
Si      -0.39905613       2.07772434      -0.92565925       0.00000000
Si      -1.89499127      -1.14890112       0.72026507       0.00000000
Si       1.21298598      -1.46577420      -1.36374113       0.00000000
Si       1.20078477      -0.40940028       1.97413937       0.00000000
Si       1.77139089      -2.41443864       0.78558943       0.00000000
Si      -0.63907299      -2.35520820      -2.57016348       0.00000000
Si      -1.90016660       3.05561304       0.57316405       0.00000000
Si       1.74764007       3.13753545      -1.01706485       0.00000000
Si      -2.64196826      -0.12696426       2.68328614       0.00000000
Si      -3.64258151      -0.91219113      -0.73685594       0.00000000
