10
Lattice="16.28999089631971 0.0 0.0 0.0 16.28999089631971 0.0 0.0 0.0 34.63643526849801" Properties=species:S:1:pos:R:3:initial_magmoms:R:1 pbc="T T T"
Si       2.22874730       0.65414124      -0.14765521       0.00000000
Si      -0.66961951       0.67080591       2.13170060       0.00000000
Si      -0.83829222       1.43718525      -1.63615684       0.00000000
Si      -1.05579630      -1.91793573      -0.96237389       0.00000000
Si      -3.04083054       1.02066624      -0.97754466       0.00000000
Si      -2.92614894       0.90903087       1.38642801       0.00000000
Si       0.03856332      -1.88450865      -3.05095211       0.00000000
Si      -0.09131522       0.41524839      -3.59917791       0.00000000
Si       0.20446068      -0.99092070       3.54833159       0.00000000
Si       3.38628212      -0.89674821       1.16000950       0.00000000
