10
Lattice="16.28999089631971 0.0 0.0 0.0 16.28999089631971 0.0 0.0 0.0 34.63643526849801" Properties=species:S:1:pos:R:3:initial_magmoms:R:1 pbc="T T T"
Si      -0.34634006      -2.29514697      -0.29070376       0.00000000
Si      -0.87408019       1.66172661      -1.41663099       0.00000000
Si      -1.18292834       0.18518472       2.03977545       0.00000000
Si       2.40454409       0.50976297      -0.03141526       0.00000000
Si       0.82294799      -0.72659916       3.01150118       0.00000000
Si       1.89585626       2.67739182       0.87893467       0.00000000
Si       0.67116592      -3.02060583       1.73209982       0.00000000
Si       0.50067804       3.53910024      -0.74094304       0.00000000
Si      -0.20446068       0.99092070      -3.54833159       0.00000000
Si       1.19970311       2.04048540       2.99314386       0.00000000
