10
Lattice="16.28999089631971 0.0 0.0 0.0 16.28999089631971 0.0 0.0 0.0 34.63643526849801" Properties=species:S:1:pos:R:3:initial_magmoms:R:1 pbc="T T T"
Si      -1.38730527      -1.29280698      -1.35751492       0.00000000
Si      -1.32543585       1.25344316       1.46284988       0.00000000
Si       1.04430303       1.56458187      -1.45252271       0.00000000
Si       1.38966732      -1.44267498       1.43664047       0.00000000
Si       2.68714953       2.54382589       0.12161898       0.00000000
Si      -2.61209010       2.65534072       0.04868846       0.00000000
Si      -0.80918946       3.26465351      -1.61739224       0.00000000
Si      -2.72666581       0.27688113      -2.64076093       0.00000000
Si      -0.89857269       1.66345565      -3.31492488       0.00000000
Si      -0.01366731      -2.64857481      -2.77837156       0.00000000
