10
Lattice="16.28999089631971 0.0 0.0 0.0 16.28999089631971 0.0 0.0 0.0 34.63643526849801" Properties=species:S:1:pos:R:3:initial_magmoms:R:1 pbc="T T T"
Si       1.35824391       1.35729909      -1.35629429       0.00000000
Si       1.35757602      -1.35759231       1.35733338       0.00000000
Si      -1.35726614       1.35759231       1.35771438       0.00000000
Si      -1.35759136      -1.35863487      -1.35670993       0.00000000
Si       0.00015964      -2.71344159       2.71487459       0.00000000
Si       2.71383255      -2.71472850       0.00065809       0.00000000
Si      -2.71429586      -0.00153126       2.71504777       0.00000000
Si       0.00044635       2.71448415       2.71501313       0.00000000
Si      -2.71471940       2.71480995       0.00020782       0.00000000
Si      -2.71455650      -2.71529865       0.00065809       0.00000000
