10
Lattice="16.28999089631971 0.0 0.0 0.0 16.28999089631971 0.0 0.0 0.0 34.63643526849801" Properties=species:S:1:pos:R:3:initial_magmoms:R:1 pbc="T T T"
Si       1.25869246      -1.46611629       1.22065793       0.00000000
Si       1.40036659       1.12850604      -1.57419223       0.00000000
Si      -1.23216975      -1.52767620      -1.49826912       0.00000000
Si      -0.60164509       0.95909004       2.22414530       0.00000000
Si      -0.23875927      -1.39843134       3.15590056       0.00000000
Si       2.62987063       2.61973729      -0.18229166       0.00000000
Si      -2.74741668       2.04319998       1.90815692       0.00000000
Si       2.77204975      -2.79567351      -0.09306815       0.00000000
Si       0.13733936       2.51103901      -3.03591988       0.00000000
Si      -2.16690624      -3.31237602      -0.28162901       0.00000000
