10
Lattice="16.28999089631971 0.0 0.0 0.0 16.28999089631971 0.0 0.0 0.0 34.63643526849801" Properties=species:S:1:pos:R:3:initial_magmoms:R:1 pbc="T T T"
Si       1.16609684      -0.06374277       2.05217530       0.00000000
Si      -2.09572220      -1.18196982       0.02563098       0.00000000
Si       1.49745173      -0.06768495      -1.93524263       0.00000000
Si      -0.36288581       2.35752138      -0.93175527       0.00000000
Si       0.23875927       1.39843134      -3.15590056       0.00000000
Si      -1.23748355      -3.44303811       0.02015842       0.00000000
Si      -0.33501362       0.91414593       3.55099860       0.00000000
Si       3.31279304       0.99606834       1.96076970       0.00000000
Si       1.56515297      -2.14146711       2.97783455       0.00000000
Si       1.06693961       3.90203885       0.29146577       0.00000000
