10
Lattice="10.86 0.0 0.0 0.0 10.86 0.0 0.0 0.0 10.86" Properties=species:S:1:pos:R:3:initial_magmoms:R:1 pbc="T T T"
Si      -1.05702552      -1.50278508      -1.18064490       0.00000000
Si       1.80379170       1.01060988      -0.75049116       0.00000000
Si      -0.99906570       1.32206382       1.70218554       0.00000000
Si      -2.37348558      -0.25804446      -2.24888880       0.00000000
Si       0.34151442       2.45695554      -2.24888880       0.00000000
Si      -2.37348558       2.45695554       0.46611120       0.00000000
Si       0.34151442      -2.97304446      -2.24888880       0.00000000
Si       3.05651442      -0.25804446      -2.24888880       0.00000000
Si      -2.37348558      -2.97304446       0.46611120       0.00000000
Si      -1.01598558       1.09945554      -3.60638880       0.00000000
