10
Lattice="10.86 0.0 0.0 0.0 10.86 0.0 0.0 0.0 10.86" Properties=species:S:1:pos:R:3:initial_magmoms:R:1 pbc="T T T"
Si      -1.80379170      -1.01060988       0.75049116       0.00000000
Si       1.25272272       1.44634566       1.21660236       0.00000000
Si       1.25272272      -1.26865434      -1.49839764       0.00000000
Si      -1.46227728       1.44634566      -1.49839764       0.00000000
Si       2.95845948       0.43718016       2.20896744       0.00000000
Si      -2.80285740       0.31145394       2.45267670       0.00000000
Si      -0.10477728       2.80384566       2.57410236       0.00000000
Si      -2.86081722      -2.51339496      -0.43015374       0.00000000
Si       2.61022272       2.80384566      -0.14089764       0.00000000
Si       2.61022272       0.08884566      -2.85589764       0.00000000
