10
Lattice="16.290000149 0.0 0.0 0.0 16.290000149 0.0 0.0 0.0 29.1751946751" Properties=species:S:1:pos:R:3:initial_magmoms:R:1 pbc="T T T"
Si      -1.34528849      -1.32102127       1.38365987       0.00000000
Si       1.36246303       1.37371942       1.36107826       0.00000000
Si      -1.38149138       1.34029234      -1.37872342       0.00000000
Si       1.43312905      -1.37627695      -1.29625973       0.00000000
H       -0.23731272      -1.38497581      -2.90033820       0.00000000
Si       2.68003082       0.11016927      -2.62872559       0.00000000
Si      -2.69035868      -2.66823686       0.01021715       0.00000000
Si      -2.70097976       0.06595821       2.71200648       0.00000000
Si       0.02378340      -2.67258629       2.74456600       0.00000000
Si      -0.03979647       2.80352532      -2.61117555       0.00000000
