10
Lattice="16.290000149 0.0 0.0 0.0 16.290000149 0.0 0.0 0.0 29.1751946751" Properties=species:S:1:pos:R:3:initial_magmoms:R:1 pbc="T T T"
Si       1.22277628      -1.53357319       1.24111278       0.00000000
Si      -1.38689803      -1.35252613      -1.29275288       0.00000000
Si      -1.05823099       1.46476423       1.47926990       0.00000000
Si       1.37588599       1.31926195      -1.35658820       0.00000000
Si       0.75730582       2.21965913       2.86272845       0.00000000
Si      -2.37283400       0.10696014       2.86424556       0.00000000
Si      -0.01933623       2.60226236      -2.71626897       0.00000000
Si      -0.02590110      -2.70010010      -2.62640937       0.00000000
Si      -2.50492961       2.81706231       0.19611566       0.00000000
Si      -2.74180250       0.00560376      -2.59621305       0.00000000
