10
Lattice="16.290000149 0.0 0.0 0.0 16.290000149 0.0 0.0 0.0 29.1751946751" Properties=species:S:1:pos:R:3:initial_magmoms:R:1 pbc="T T T"
Si      -0.68786155       2.04981470       0.76555711       0.00000000
Si       2.05688945      -0.61166833       0.89071869       0.00000000
Si      -1.24362748      -1.78584502       0.84354240       0.00000000
Si      -0.63876349      -0.67696354      -2.14606897       0.00000000
Si      -0.68235553      -2.82208451      -1.16581160       0.00000000
H        0.68799187       2.31091082      -2.13816249       0.00000000
Si      -1.30134295       1.53334025       2.94745322       0.00000000
Si      -3.53115075       0.78629713      -0.77206318       0.00000000
Si       1.53521848      -1.86566602       2.82255421       0.00000000
Si       1.07807221       3.53350792       0.43275566       0.00000000
