10
Lattice="16.290000149 0.0 0.0 0.0 16.290000149 0.0 0.0 0.0 29.1751946751" Properties=species:S:1:pos:R:3:initial_magmoms:R:1 pbc="T T T"
Si       1.36824598       1.34892604       1.33838288       0.00000000
Si       1.44280531      -1.33139474      -1.28306671       0.00000000
Si      -1.35009892      -1.38744212       1.33546536       0.00000000
Si      -1.37712403       1.33988509      -1.35895139       0.00000000
Si       0.11966634      -2.66937228      -2.62060935       0.00000000
Si       0.03275919       2.74506051      -2.61743800       0.00000000
Si       0.00283446       2.69555519       2.68913604       0.00000000
Si       2.69316056      -0.03461625       2.69861798       0.00000000
Si      -2.71280630      -0.02505402       2.68111287       0.00000000
Si      -2.79595047      -0.09052353      -2.59418537       0.00000000
