10
Lattice="16.290000149 0.0 0.0 0.0 16.290000149 0.0 0.0 0.0 29.1751946751" Properties=species:S:1:pos:R:3:initial_magmoms:R:1 pbc="T T T"
Si       1.34545627       1.35396617      -1.36504901       0.00000000
Si      -1.35669637      -1.36232620      -1.35046141       0.00000000
Si       1.39000942      -1.34836567       1.33246032       0.00000000
Si      -1.38417760       1.35536711       1.33388990       0.00000000
Si       0.02624319      -2.69835056       2.68195895       0.00000000
Si      -0.02852379       2.72327100       2.67122247       0.00000000
Si      -2.70338417      -0.00291591      -2.70602848       0.00000000
Si       2.70472646      -0.00202159      -2.70667034       0.00000000
Si       2.71818200       2.70233835      -0.02269830       0.00000000
Si       2.71059086      -2.71604150      -0.05134834       0.00000000
