10
Lattice="16.290000149 0.0 0.0 0.0 16.290000149 0.0 0.0 0.0 29.1751946751" Properties=species:S:1:pos:R:3:initial_magmoms:R:1 pbc="T T T"
Si       1.13396320      -0.06265134      -1.00027155       0.00000000
H        0.68888782       0.92613538       1.62231588       0.00000000
H       -0.92556523       1.75330901       0.46178498       0.00000000
Si      -2.28428156       1.18724779       0.18030270       0.00000000
Si      -2.73566117      -1.02076399       0.79088118       0.00000000
Si       0.14688693       0.66917692       3.00653299       0.00000000
Si       1.35817876      -2.19856358      -1.90969154       0.00000000
Si       3.19551159       0.63131896      -0.09779525       0.00000000
Si       0.90709237       1.45013581      -2.83614985       0.00000000
Si      -1.65108926      -0.92310544       2.88498913       0.00000000
