10
Lattice="16.290000149 0.0 0.0 0.0 16.290000149 0.0 0.0 0.0 29.1751946751" Properties=species:S:1:pos:R:3:initial_magmoms:R:1 pbc="T T T"
Si       1.14784228       0.12667104      -2.05877679       0.00000000
Si      -0.91963567      -1.83462869       1.16779552       0.00000000
Si       1.55934397       0.78451012       1.59241130       0.00000000
Si      -1.93060937       1.49297851      -0.31620076       0.00000000
Si      -1.94838176      -0.34836165       2.64181388       0.00000000
H       -2.83250523       0.50266053       1.75354590       0.00000000
H        1.85484458      -2.85205323      -0.13575218       0.00000000
Si      -0.05147640       0.95545738       3.27319427       0.00000000
Si       2.39647079       2.71147378       0.57314670       0.00000000
Si       2.67445964       1.97257241      -1.63351915       0.00000000
