10
Lattice="16.290000149 0.0 0.0 0.0 16.290000149 0.0 0.0 0.0 29.1751946751" Properties=species:S:1:pos:R:3:initial_magmoms:R:1 pbc="T T T"
Si      -1.52114392       1.31691619       1.19697071       0.00000000
Si       1.41304348       1.28374975      -1.38141629       0.00000000
Si      -1.22935744      -1.43334082      -1.42657949       0.00000000
Si       0.98222185      -0.86083203       1.98656818       0.00000000
Si      -0.08117307       2.64688067       2.40692439       0.00000000
Si      -0.76488067      -1.18323556       3.47864599       0.00000000
Si       1.09936324      -3.16609185       1.75164951       0.00000000
Si      -2.68306076      -0.12308887       2.70051437       0.00000000
Si      -2.57310326      -2.81176806      -0.11337481       0.00000000
Si       0.06556725       2.61724916      -2.78839006       0.00000000
