10
Lattice="16.290000149 0.0 0.0 0.0 16.290000149 0.0 0.0 0.0 29.1751946751" Properties=species:S:1:pos:R:3:initial_magmoms:R:1 pbc="T T T"
Si       1.35565381       1.36790389       1.33733257       0.00000000
Si      -1.32845440       1.36031275      -1.37444342       0.00000000
Si       1.38417760      -1.35536711      -1.33388990       0.00000000
Si      -1.34729867      -1.35386517       1.37601888       0.00000000
Si       2.71054199       0.00104256       2.67425669       0.00000000
Si      -2.69850368      -0.00858483      -2.69984334       0.00000000
Si       0.05869287      -2.69228090       2.70877095       0.00000000
Si       0.02748123      -2.71769330      -2.68435131       0.00000000
Si      -2.69392619       2.71171487      -0.02494479       0.00000000
Si      -0.02246391       2.71365338       2.69462098       0.00000000
