10
Lattice="16.290000149 0.0 0.0 0.0 16.290000149 0.0 0.0 0.0 29.1751946751" Properties=species:S:1:pos:R:3:initial_magmoms:R:1 pbc="T T T"
Si       1.34796167      -1.33578001       1.37558125       0.00000000
Si      -1.27194911       1.36107838       1.42267002       0.00000000
Si       1.34193437       1.36853920      -1.36309427       0.00000000
Si      -1.37924499      -1.36168111      -1.33374402       0.00000000
Si       2.66065876       0.13175352       2.65529282       0.00000000
Si       0.01709961      -2.69897935      -2.68169637       0.00000000
Si      -2.66322280       2.71676477       0.07197521       0.00000000
Si      -2.68337353       0.01865205      -2.70891683       0.00000000
Si      -0.06161530      -2.63094905       2.76367867       0.00000000
Si       2.72005210       0.02278971      -2.72038268       0.00000000
