10
Lattice="16.290000149 0.0 0.0 0.0 16.290000149 0.0 0.0 0.0 29.1751946751" Properties=species:S:1:pos:R:3:initial_magmoms:R:1 pbc="T T T"
Si      -1.34405533       1.28029627       1.45919736       0.00000000
Si      -1.36906048      -1.40574556      -1.31604343       0.00000000
Si       1.34035750      -1.33649677       1.42159054       0.00000000
Si       1.33633387       1.42226362      -1.35886678       0.00000000
Si       2.65658951      -0.02130732      -2.67516404       0.00000000
Si      -2.67623525      -2.69744483       0.15346152       0.00000000
Si      -2.77500153       2.60011208       0.17370911       0.00000000
Si       0.06046848      -2.77920435      -2.60098028       0.00000000
Si      -2.71839377      -0.04404816      -2.69273918       0.00000000
Si       2.69382845       2.75160909       0.02360273       0.00000000
