10
Lattice="16.290000149 0.0 0.0 0.0 16.290000149 0.0 0.0 0.0 29.1751946751" Properties=species:S:1:pos:R:3:initial_magmoms:R:1 pbc="T T T"
Si      -2.19455624       0.72355294       0.46610291       0.00000000
Si      -0.26777502      -2.03066255       1.19597876       0.00000000
Si       1.57517785       1.31051422       1.20613172       0.00000000
Si      -0.28672029       0.88581763      -2.24115093       0.00000000
H        2.24714036      -0.95298130      -1.63357750       0.00000000
H        0.80883109      -1.86417875      -2.18215869       0.00000000
H        1.61707573      -2.61078203      -0.52845030       0.00000000
H        1.04451481      -2.49012200       1.80226848       0.00000000
Si      -2.15096420       2.86867391      -0.51415446       0.00000000
Si      -2.41378706      -0.08408898      -2.92119554       0.00000000
