10
Lattice="16.290000149 0.0 0.0 0.0 16.290000149 0.0 0.0 0.0 29.1751946751" Properties=species:S:1:pos:R:3:initial_magmoms:R:1 pbc="T T T"
Si      -1.34708527      -1.35915616      -1.36070190       0.00000000
Si      -1.36938628       1.36482508       1.33523196       0.00000000
Si       1.34640109      -1.35889552       1.36796653       0.00000000
Si       1.36156708       1.37401264      -1.33768268       0.00000000
Si      -0.00457749       2.72007164       2.68245492       0.00000000
Si      -2.70661610      -2.70267392       0.01129080       0.00000000
Si      -2.70119153       0.00687438      -2.71504362       0.00000000
Si       0.03104874      -2.70435179      -2.71489774       0.00000000
Si       2.71715573      -2.70381422       0.02815406       0.00000000
Si       2.77088016       0.04469976      -2.65150004       0.00000000
