10
Lattice="16.290000149 0.0 0.0 0.0 16.290000149 0.0 0.0 0.0 29.1751946751" Properties=species:S:1:pos:R:3:initial_magmoms:R:1 pbc="T T T"
Si       1.37500633       1.34200279      -1.34290504       0.00000000
Si       1.36137160      -1.39473352       1.30509398       0.00000000
Si      -1.35558865      -1.35332434      -1.35912644       0.00000000
Si      -1.35250984       1.36953289       1.35063646       0.00000000
Si       0.00563634       2.68995143      -2.68426379       0.00000000
Si       2.78155011      -0.08483832       2.61864877       0.00000000
Si      -2.74165590       0.00962739       2.66346187       0.00000000
Si       0.01837512      -2.73227285      -2.67597803       0.00000000
Si       0.01226637      -2.75302632       2.65774353       0.00000000
Si       0.02430468       2.73538425       2.68691873       0.00000000
