10
Lattice="16.290000149 0.0 0.0 0.0 16.290000149 0.0 0.0 0.0 29.1751946751" Properties=species:S:1:pos:R:3:initial_magmoms:R:1 pbc="T T T"
Si      -1.43052754       1.21386565      -1.38357526       0.00000000
Si       1.14391639      -1.42716691      -1.46342776       0.00000000
Si      -1.47905871      -1.20342376       1.38757226       0.00000000
Si       1.50462586       1.34073217       1.30159296       0.00000000
H        0.03565881      -2.67235823       0.75633775       0.00000000
H       -2.61654869      -0.23776884       1.67777792       0.00000000
H        2.05029200      -2.32684733      -0.65547910       0.00000000
Si      -0.18875223      -1.04847328       3.41285592       0.00000000
Si      -0.06273279       2.64148868      -2.68341771       0.00000000
Si      -2.86545990       2.45834021      -0.01417914       0.00000000
