10
Lattice="16.290000149 0.0 0.0 0.0 16.290000149 0.0 0.0 0.0 29.1751946751" Properties=species:S:1:pos:R:3:initial_magmoms:R:1 pbc="T T T"
Si       1.45285624      -1.18187209      -1.35426148       0.00000000
Si      -1.34169491      -1.46323297       1.23245213       0.00000000
Si      -1.35761187       1.24576147      -1.45459497       0.00000000
Si       1.42539130       1.36078516       1.28216374       0.00000000
Si       0.09612729      -2.48451824      -2.72925923       0.00000000
Si      -2.69933447      -0.00368154       2.52480530       0.00000000
Si      -2.52738538       2.83685726      -0.16677271       0.00000000
Si       0.09770742       2.67584429       2.70312993       0.00000000
Si       2.75576304      -0.03339450       2.65169989       0.00000000
Si       2.71982729      -2.69335604      -0.01755005       0.00000000
