10
Lattice="16.290000149 0.0 0.0 0.0 16.290000149 0.0 0.0 0.0 29.1751946751" Properties=species:S:1:pos:R:3:initial_magmoms:R:1 pbc="T T T"
Si       1.37738467       1.34021089       1.33199351       0.00000000
Si       1.37810143      -1.36671472      -1.31124995       0.00000000
Si      -1.35356869      -1.35148357       1.36160634       0.00000000
Si      -1.35060391       1.37668420      -1.34194225       0.00000000
Si      -0.05696613       2.66207924       2.61400992       0.00000000
Si       0.00037467      -2.70228296      -2.65643065       0.00000000
Si       2.73706212      -0.01099575      -2.66524156       0.00000000
Si      -2.71541270       0.02143764      -2.68916522       0.00000000
Si       0.00977400      -2.67768506       2.74176809       0.00000000
Si       0.00952965       2.73991287      -2.68487647       0.00000000
