10
Lattice="16.290000149 0.0 0.0 0.0 16.290000149 0.0 0.0 0.0 29.1751946751" Properties=species:S:1:pos:R:3:initial_magmoms:R:1 pbc="T T T"
Si      -1.82840591      -1.29481066       0.63596089       0.00000000
Si       1.82299763      -1.45562554      -0.16766984       0.00000000
Si      -1.03172716       0.82715734      -1.95354186       0.00000000
Si       0.65073664       1.77150494       1.58558431       0.00000000
H       -0.00965997      -1.15245235       3.13026499       0.00000000
Si      -2.55897983       2.09153828      -0.73947448       0.00000000
Si       3.44434134       0.23117139      -0.09627814       0.00000000
Si      -3.47970693       0.35973207       0.53831152       0.00000000
Si      -1.36837630      -1.71851357       2.84878271       0.00000000
Si       2.88306939       1.26741088       1.91307587       0.00000000
