10
Lattice="16.290000149 0.0 0.0 0.0 16.290000149 0.0 0.0 0.0 29.1751946751" Properties=species:S:1:pos:R:3:initial_magmoms:R:1 pbc="T T T"
Si      -0.53166651      -0.88961320      -2.09612104       0.00000000
Si       2.05526045       1.03514806       0.67193391       0.00000000
Si      -1.42090015       1.93342754       0.00898596       0.00000000
Si      -0.69287887      -1.74381194       1.51498033       0.00000000
H        1.43865136       1.59329233      -2.37372301       0.00000000
Si      -1.96089248      -0.31586310       2.83596400       0.00000000
H        2.84729655      -0.44730711      -1.92778016       0.00000000
Si       0.24275358       1.22759812      -3.26566707       0.00000000
Si       1.12945087       2.15565572       2.64989541       0.00000000
Si      -3.10142055       1.18190467       1.45759273       0.00000000
