10
Lattice="16.290000149 0.0 0.0 0.0 16.290000149 0.0 0.0 0.0 29.1751946751" Properties=species:S:1:pos:R:3:initial_magmoms:R:1 pbc="T T T"
Si       1.38671884       1.35884665      -1.30579419       0.00000000
Si       1.38178297      -1.34615674       1.33639897       0.00000000
Si      -1.31870809       1.36909306       1.38929360       0.00000000
Si      -1.33076269      -1.34628706      -1.41365488       0.00000000
Si       0.01663209       2.72007002      -2.61972826       0.00000000
Si       0.01306458      -2.69086367       2.67837040       0.00000000
Si      -2.67810860      -2.69316056      -0.04522155       0.00000000
Si      -2.66539589       2.72850335       0.03372653       0.00000000
Si       2.71070489       0.00658116      -2.68971955       0.00000000
Si      -2.69420638       0.02116071       2.73990088       0.00000000
