10
Lattice="16.290000149 0.0 0.0 0.0 16.290000149 0.0 0.0 0.0 29.1751946751" Properties=species:S:1:pos:R:3:initial_magmoms:R:1 pbc="T T T"
Si       1.43208649      -1.22603428      -1.28542990       0.00000000
Si      -1.22277628       1.53357319      -1.24111278       0.00000000
Si       1.48647880       1.01374300       1.46943786       0.00000000
Si      -1.12024702      -1.44184420       1.55001974       0.00000000
H        2.07513425      -2.06827616      -0.20580182       0.00000000
Si      -1.99627436       0.33832701       2.83375748       0.00000000
Si      -0.12362481       1.80219530       2.99282065       0.00000000
Si       2.46521459      -0.84567907       2.36511633       0.00000000
Si      -0.00788436      -2.55599876      -2.49538358       0.00000000
Si       0.69928084      -2.32937228       2.69791778       0.00000000
