10
Lattice="16.290000149 0.0 0.0 0.0 16.290000149 0.0 0.0 0.0 29.1751946751" Properties=species:S:1:pos:R:3:initial_magmoms:R:1 pbc="T T T"
Si       1.33491664       1.33891095      -1.32844873       0.00000000
Si      -1.33032286       1.41959532       1.28604258       0.00000000
Si       1.43420419      -1.34603945       1.26194387       0.00000000
Si      -1.36220239      -1.28075360      -1.41019470       0.00000000
Si       0.05473440      -2.68976899       2.59723418       0.00000000
Si      -2.67856472       0.04601436       2.62363773       0.00000000
Si       0.05510907       2.76984085       2.61100487       0.00000000
Si       2.78076819       0.04199236       2.60120201       0.00000000
Si      -2.71057457      -2.67680215      -0.09916649       0.00000000
Si      -0.04222368      -2.77017643      -2.61818197       0.00000000
