10
Lattice="16.290000149 0.0 0.0 0.0 16.290000149 0.0 0.0 0.0 29.1751946751" Properties=species:S:1:pos:R:3:initial_magmoms:R:1 pbc="T T T"
H        1.28303299       0.03556107       0.81713885       0.00000000
Si      -1.36100508      -1.38396257       1.33666154       0.00000000
Si       0.60248566      -1.51593112      -1.75920589       0.00000000
Si      -0.79248570       2.26168733       0.21467108       0.00000000
Si       0.52160580       1.99617662      -1.69615829       0.00000000
Si       0.48029436      -2.55783953       2.26907159       0.00000000
Si       2.73334800       1.91122427      -0.89497827       0.00000000
H       -3.05887107       1.00097164      -1.50301850       0.00000000
Si       3.59543109      -0.16498512      -0.10068360       0.00000000
Si       2.67056633      -2.24266550      -0.91397132       0.00000000
