10
Lattice="16.290000149 0.0 0.0 0.0 16.290000149 0.0 0.0 0.0 29.1751946751" Properties=species:S:1:pos:R:3:initial_magmoms:R:1 pbc="T T T"
Si      -1.27826654       1.37310040      -1.38715214       0.00000000
Si       1.30155472       1.32908319       1.42346067       0.00000000
Si      -1.41140471      -1.39020490       1.25669525       0.00000000
Si       1.32768388      -1.31505913      -1.42096619       0.00000000
Si       2.64450233       2.66238875       0.07551707       0.00000000
Si       2.65805561      -2.70923879      -0.05143003       0.00000000
Si      -0.04584006      -2.73727389       2.62953404       0.00000000
Si      -0.09770742      -2.67584429      -2.70312993       0.00000000
Si      -2.70978223       2.68164353      -0.03533700       0.00000000
Si      -2.69422300      -0.04504185       2.71177891       0.00000000
