10
Lattice="16.290000149 0.0 0.0 0.0 16.290000149 0.0 0.0 0.0 29.1751946751" Properties=species:S:1:pos:R:3:initial_magmoms:R:1 pbc="T T T"
Si      -1.36020035      -1.35021295       1.35337893       0.00000000
Si      -1.38898641       1.34961022      -1.32951362       0.00000000
Si       1.31828455      -1.36241416      -1.39104411       0.00000000
Si       1.36945144       1.36151821       1.35229945       0.00000000
Si      -0.01348812       2.69754257      -2.68012091       0.00000000
Si       0.01016496      -2.69267186       2.71020053       0.00000000
Si       2.68490153      -2.71992503      -0.06278502       0.00000000
Si       2.68700294      -0.01770723      -2.73301554       0.00000000
Si      -2.69874386       0.01277136       2.72618854       0.00000000
Si      -2.70360304      -0.01580130      -2.72385453       0.00000000
