10
Lattice="16.290000149 0.0 0.0 0.0 16.290000149 0.0 0.0 0.0 29.1751946751" Properties=species:S:1:pos:R:3:initial_magmoms:R:1 pbc="T T T"
Si      -0.34643943       0.88330897       2.13451559       0.00000000
Si      -1.85543102      -0.93151108      -1.10600245       0.00000000
Si       1.05567346       1.76246399      -1.18139116       0.00000000
Si       1.60173055      -1.77676661      -0.08904269       0.00000000
Si       2.13843719       0.34223661      -2.67915813       0.00000000
Si      -0.67199509      -2.38278719      -2.51802353       0.00000000
Si       1.27490428       2.57010590       2.20590729       0.00000000
Si       2.23006844      -2.18075861       2.05880596       0.00000000
Si       3.43357365      -0.95149891      -1.25237441       0.00000000
Si      -3.15758847      -2.16798725       0.39436111       0.00000000
