10
Lattice="16.290000149 0.0 0.0 0.0 16.290000149 0.0 0.0 0.0 29.1751946751" Properties=species:S:1:pos:R:3:initial_magmoms:R:1 pbc="T T T"
Si       0.84911626      -1.87437629      -1.11840191       0.00000000
Si       1.48349773       1.24859593       1.37931568       0.00000000
Si      -1.39600414       1.31256676      -1.42777568       0.00000000
Si      -1.31028616      -1.36309834       1.48983132       0.00000000
H        1.39111714      -1.61741782      -2.50261902       0.00000000
H        2.65585646       0.13523958      -2.07056357       0.00000000
Si      -0.00123804       2.54536628       2.71807784       0.00000000
Si      -2.80442127       2.49196277       0.04338351       0.00000000
H       -0.22333590      -0.79024420      -3.66314992       0.00000000
Si      -2.66701511      -2.66574449       0.11483357       0.00000000
