10
Lattice="16.290000149 0.0 0.0 0.0 16.290000149 0.0 0.0 0.0 29.1751946751" Properties=species:S:1:pos:R:3:initial_magmoms:R:1 pbc="T T T"
H       -0.06955830      -1.07391826      -1.06232719       0.00000000
Si       2.19682707       0.18679743       0.65536240       0.00000000
Si      -1.62020341      -0.67768030       1.56186487       0.00000000
Si      -0.44489619       2.13464162      -0.88885148       0.00000000
H       -1.88587703       2.42287688      -0.44576780       0.00000000
H        1.08312211       0.73199116      -2.99054498       0.00000000
Si      -3.15389064      -1.39934359      -0.04898515       0.00000000
H       -1.28647018      -3.24254571       0.67310092       0.00000000
Si       2.98931277      -2.07488990       0.44069132       0.00000000
Si       3.51091857      -0.07871328      -1.25546698       0.00000000
