10
Lattice="16.290000149 0.0 0.0 0.0 16.290000149 0.0 0.0 0.0 29.1751946751" Properties=species:S:1:pos:R:3:initial_magmoms:R:1 pbc="T T T"
Si       1.33689425       1.35044101      -1.37009632       0.00000000
Si      -1.37927907       1.39542601       1.29806276       0.00000000
Si       1.34705921      -1.35280306       1.38625937       0.00000000
Si      -1.37957314      -1.35974260      -1.35690913       0.00000000
Si      -0.11842179      -2.73460232       2.60196056       0.00000000
Si      -2.69121554       0.05877432       2.66457053       0.00000000
Si       2.68573884      -2.68333769      -0.02237737       0.00000000
Si       2.68059120       2.69680464       0.01832202       0.00000000
Si      -0.06909729       2.68885675      -2.70284839       0.00000000
Si       2.68862217      -0.01099575      -2.73079822       0.00000000
