10
Lattice="16.290000149 0.0 0.0 0.0 16.290000149 0.0 0.0 0.0 29.1751946751" Properties=species:S:1:pos:R:3:initial_magmoms:R:1 pbc="T T T"
Si      -1.36422235      -1.34765054       1.35022801       0.00000000
Si      -1.36295173       1.36546039      -1.33584464       0.00000000
Si       1.35977518       1.34317567       1.36388200       0.00000000
Si       1.36270738      -1.36238810      -1.34564750       0.00000000
Si       0.01019754      -2.69405651       2.68700625       0.00000000
Si       2.71280630       0.02505402      -2.68111287       0.00000000
Si       0.00807984       2.72323190      -2.67381907       0.00000000
Si      -2.74838367       0.01521486      -2.66080693       0.00000000
Si      -0.00048870       2.69464295       2.71708588       0.00000000
Si      -2.71404434      -2.71759556      -0.00102113       0.00000000
