10
Lattice="16.290000149 0.0 0.0 0.0 16.290000149 0.0 0.0 0.0 29.1751946751" Properties=species:S:1:pos:R:3:initial_magmoms:R:1 pbc="T T T"
Si      -1.26801361       1.42794883       1.32098367       0.00000000
Si       1.63191592      -1.18423414       1.20805816       0.00000000
Si       0.69287887       1.74381194      -1.51498033       0.00000000
Si      -1.33604065      -1.97555348      -0.49241894       0.00000000
Si       0.29471217      -2.58957245       2.55998621       0.00000000
Si       0.16121236       0.85419874      -3.61110137       0.00000000
Si      -2.58849731       0.10207314       2.68550373       0.00000000
Si      -0.40730702      -2.79145117      -2.48911091       0.00000000
Si       0.21318234       2.81776278       2.51349554       0.00000000
Si      -2.40854168       2.92571661      -0.05738761       0.00000000
