10
Lattice="16.290000149 0.0 0.0 0.0 16.290000149 0.0 0.0 0.0 29.1751946751" Properties=species:S:1:pos:R:3:initial_magmoms:R:1 pbc="T T T"
Si      -1.32216157      -1.33662709      -1.39474644       0.00000000
Si       1.39061215       1.30131037      -1.37130125       0.00000000
Si       1.35410626      -1.36603054       1.35434171       0.00000000
Si      -1.37709145       1.36511830       1.33216856       0.00000000
Si       0.03225420       2.66142764      -2.70865717       0.00000000
Si      -2.69063073      -2.69969285      -0.03366817       0.00000000
Si       0.10031382      -2.71096553      -2.68842125       0.00000000
Si      -0.01617597       2.71902908       2.68484729       0.00000000
Si       2.71780733       2.69052158      -0.02307758       0.00000000
Si       2.70119153      -0.00687438       2.71504362       0.00000000
