10
Lattice="16.290000149 0.0 0.0 0.0 16.290000149 0.0 0.0 0.0 29.1751946751" Properties=species:S:1:pos:R:3:initial_magmoms:R:1 pbc="T T T"
Si      -1.36936999       1.34794864      -1.34135875       0.00000000
Si      -1.37500633      -1.34200279       1.34290504       0.00000000
Si       1.35544204      -1.35239581      -1.36609932       0.00000000
Si       1.35700588       1.36309834       1.35804696       0.00000000
Si       0.01009980       2.69167817      -2.67664906       0.00000000
Si      -0.01363473      -2.73673631       2.64799902       0.00000000
Si       2.71700912      -2.69205284      -0.00067103       0.00000000
Si      -2.72751617       0.02753010       2.69354150       0.00000000
Si       2.71107956       0.01813077      -2.71268043       0.00000000
Si      -2.73059498      -2.69532713      -0.01622141       0.00000000
