10
Lattice="16.290000149 0.0 0.0 0.0 16.290000149 0.0 0.0 0.0 29.1751946751" Properties=species:S:1:pos:R:3:initial_magmoms:R:1 pbc="T T T"
Si      -1.41652954       1.22385142      -1.37779857       0.00000000
Si      -1.31215300      -1.48848247       1.27148416       0.00000000
Si       1.50496795      -1.33395553      -1.24872751       0.00000000
Si       0.66471346       1.87815557       1.29505772       0.00000000
Si       0.04895145       2.60565068      -2.59349976       0.00000000
Si       0.25040988      -2.56810223       2.63516193       0.00000000
Si      -2.75792961       2.52530840       0.04589258       0.00000000
Si       0.06970491      -2.74330119      -2.56560827       0.00000000
Si      -2.70464501      -0.18608067      -2.69672159       0.00000000
Si      -0.98658757       3.53269830       1.19740834       0.00000000
