10
Lattice="16.290000149 0.0 0.0 0.0 16.290000149 0.0 0.0 0.0 29.1751946751" Properties=species:S:1:pos:R:3:initial_magmoms:R:1 pbc="T T T"
Si      -1.34369695      -1.34636363      -1.38841834       0.00000000
Si       1.30815217       1.34695984      -1.42293259       0.00000000
Si       1.42561936      -1.36495052       1.29602050       0.00000000
Si      -1.41882643       1.35525145       1.33610722       0.00000000
Si       0.07890876      -2.65513482       2.66699207       0.00000000
Si      -2.68059120      -2.69680464      -0.01832202       0.00000000
Si       2.60151302       2.78362382      -0.10981543       0.00000000
Si      -0.10612935       2.82278498       2.61581878       0.00000000
Si       2.68038920      -0.04585309       2.76586681       0.00000000
Si       2.73349460      -0.01511875      -2.72137463       0.00000000
