10
Lattice="16.290000149 0.0 0.0 0.0 16.290000149 0.0 0.0 0.0 29.1751946751" Properties=species:S:1:pos:R:3:initial_magmoms:R:1 pbc="T T T"
Si       1.34671060       1.29018430      -1.37097157       0.00000000
Si      -1.52725267       1.26438094       1.21406738       0.00000000
Si       1.03172716      -0.82715734       1.95354186       0.00000000
Si      -1.41244075      -1.39447288      -1.29905472       0.00000000
Si      -0.79667875      -2.12196800       2.58950275       0.00000000
Si      -2.44797977      -0.46742526       2.49185338       0.00000000
Si       2.60148044       2.60928172       0.09887473       0.00000000
Si      -0.07890876       2.65513482      -2.66699207       0.00000000
Si       2.71143794      -0.07939746      -2.71501444       0.00000000
Si      -0.07376112      -2.72500751      -2.70769147       0.00000000
