10
Lattice="16.290000149 0.0 0.0 0.0 16.290000149 0.0 0.0 0.0 29.1751946751" Properties=species:S:1:pos:R:3:initial_magmoms:R:1 pbc="T T T"
Si      -0.97435378       1.45345897       1.51226704       0.00000000
Si       1.56540385      -1.28326105       1.12228221       0.00000000
Si       1.61642413       1.02617227      -1.39585801       0.00000000
Si      -1.89467363      -1.49879404      -0.32626620       0.00000000
H       -0.38196792      -2.35248779      -2.02738428       0.00000000
H        0.76476664      -0.72180991      -3.15138783       0.00000000
H       -2.49724073      -1.59104431      -1.72553771       0.00000000
Si       0.17484057      -2.71911053       2.29891781       0.00000000
Si      -2.65680128       2.38734839       0.19427762       0.00000000
H       -2.11480040       2.64430685      -1.18993949       0.00000000
