10
Lattice="16.290000149 0.0 0.0 0.0 16.290000149 0.0 0.0 0.0 29.1751946751" Properties=species:S:1:pos:R:3:initial_magmoms:R:1 pbc="T T T"
Si       1.29580435       1.28527775       1.50647576       0.00000000
Si      -1.33651306      -1.36580737       1.40817870       0.00000000
Si       1.48473577      -1.29677035      -1.33876216       0.00000000
Si      -1.35523027       1.38675794      -1.39973831       0.00000000
Si       0.00123804      -2.54536628      -2.71807784       0.00000000
Si      -2.60525972       2.72769048       0.09006470       0.00000000
Si       2.69596244      -2.71481486       0.11178622       0.00000000
Si       2.28610604       3.06982935       0.35098343       0.00000000
Si       2.37216611       2.37629888      -1.87861996       0.00000000
Si       0.16889472       2.75580702      -2.68636440       0.00000000
