10
Lattice="16.290000149 0.0 0.0 0.0 16.290000149 0.0 0.0 0.0 29.1751946751" Properties=species:S:1:pos:R:3:initial_magmoms:R:1 pbc="T T T"
Si       1.18175806       0.53755371       1.05354546       0.00000000
Si      -1.29443599      -0.54698563      -0.92733356       0.00000000
Si      -0.06551838      -2.39844188      -1.59366583       0.00000000
Si      -0.36106785       1.81082900       2.24185113       0.00000000
Si       2.86227846       1.28907658      -0.39506131       0.00000000
Si      -3.08084628      -1.13492431       0.51430033       0.00000000
Si       2.32228613      -0.96021406       2.43191673       0.00000000
Si      -2.31783896       0.78892471      -2.54603171       0.00000000
Si      -1.83049103       3.02332629       0.78927654       0.00000000
H       -0.33119199       0.70211530      -3.60129851       0.00000000
