10
Lattice="16.290000149 0.0 0.0 0.0 16.290000149 0.0 0.0 0.0 29.1751946751" Properties=species:S:1:pos:R:3:initial_magmoms:R:1 pbc="T T T"
Si       1.29336085       1.43666398       1.31311716       0.00000000
Si      -1.35488818       1.36686133      -1.33692412       0.00000000
Si      -1.30815217      -1.34695984       1.42293259       0.00000000
Si       1.42534243      -1.36207859      -1.29844204       0.00000000
Si       2.53415387       0.04719213       2.68525574       0.00000000
Si      -2.65184912      -2.69332346       0.03451426       0.00000000
Si       0.06364503      -2.70477533      -2.67568628       0.00000000
Si      -2.71054199      -0.00104256      -2.67425669       0.00000000
Si       0.02026476       2.70306488      -2.69893891       0.00000000
Si       2.76086181       0.00149868      -2.66754640       0.00000000
