10
Lattice="16.290000149 0.0 0.0 0.0 16.290000149 0.0 0.0 0.0 29.1751946751" Properties=species:S:1:pos:R:3:initial_magmoms:R:1 pbc="T T T"
Si       0.73725283      -1.32512635       1.78986902       0.00000000
Si      -1.75749554       0.97008580       1.26115614       0.00000000
Si       1.39237147       1.82412164      -0.74878137       0.00000000
Si       0.10774206      -1.73226233      -1.80489424       0.00000000
H       -2.14757588      -0.25251129      -1.30976201       0.00000000
Si       2.88285762       0.55912168      -2.03304427       0.00000000
Si       2.73204480      -2.21082832       0.81460061       0.00000000
Si      -0.77867830      -3.17509044       1.71911917       0.00000000
Si      -2.79062364       0.58973059      -2.38939009       0.00000000
Si       1.54210915      -3.35924548      -0.87761903       0.00000000
