10
Lattice="16.290000149 0.0 0.0 0.0 16.290000149 0.0 0.0 0.0 29.1751946751" Properties=species:S:1:pos:R:3:initial_magmoms:R:1 pbc="T T T"
Si       0.84857869      -1.83863603       1.12744622       0.00000000
Si      -1.71815519       0.80091415       1.35477934       0.00000000
Si      -1.08457192      -0.09765855      -2.09410795       0.00000000
Si       1.79797619       1.59228235       0.12154386       0.00000000
H        2.33997707       1.84924082      -1.26267325       0.00000000
H       -1.15802353      -3.02894634      -1.04867320       0.00000000
H        1.65108926       0.92310544      -2.88498913       0.00000000
Si       2.56010384      -2.29386008      -0.39899996       0.00000000
Si      -0.36142623       2.10356030       2.72977709       0.00000000
Si      -0.63319231       2.11035323      -2.70468642       0.00000000
