10
Lattice="16.290000149 0.0 0.0 0.0 16.290000149 0.0 0.0 0.0 29.1751946751" Properties=species:S:1:pos:R:3:initial_magmoms:R:1 pbc="T T T"
Si       0.64624060       0.82661977      -1.07679809       0.00000000
H       -1.43830927      -0.91119745      -0.54858119       0.00000000
H       -0.63006463      -1.65780074       1.10512720       0.00000000
Si      -2.24714036       0.95298130       1.63357750       0.00000000
Si       0.55530982      -2.17098461       1.90429413       0.00000000
Si       1.92151955       2.28962468       0.22167313       0.00000000
Si       1.88379191      -0.53950851      -2.49468337       0.00000000
Si      -2.53386065       1.83879893      -0.60757343       0.00000000
Si      -0.93274912       1.91256005      -2.39849275       0.00000000
Si      -2.28302723      -1.84507058      -1.35860129       0.00000000
