10
Lattice="16.290000149 0.0 0.0 0.0 16.290000149 0.0 0.0 0.0 29.1751946751" Properties=species:S:1:pos:R:3:initial_magmoms:R:1 pbc="T T T"
Si      -1.37008675       1.36122336      -1.31393407       0.00000000
Si      -1.38671884      -1.35884665       1.30579419       0.00000000
Si       1.32398605      -1.35226549      -1.38392536       0.00000000
Si       1.35599590       1.37055102       1.33887886       0.00000000
Si      -0.00493587      -2.70500339       2.64219316       0.00000000
Si      -0.02713914       2.69452892      -2.66187766       0.00000000
Si       2.67235823       0.04378306      -2.69495358       0.00000000
Si       2.73857709       0.01132155       2.66106951       0.00000000
Si      -2.70542693       0.01024641       2.69508778       0.00000000
Si      -0.00327429       2.72653877       2.68050019       0.00000000
