10
Lattice="16.290000149 0.0 0.0 0.0 16.290000149 0.0 0.0 0.0 29.1751946751" Properties=species:S:1:pos:R:3:initial_magmoms:R:1 pbc="T T T"
Si       2.20327139      -0.37950813       0.80774444       0.00000000
Si       0.05952366       2.29532618       0.65784229       0.00000000
Si       0.14305878      -0.41635611      -2.35808511       0.00000000
Si      -1.52412499      -1.36904908       1.28662609       0.00000000
H       -2.16933932      -0.21580992      -1.44026266       0.00000000
H       -0.86589496       2.45262242      -1.87438956       0.00000000
Si       0.48488814       2.05058522       2.94688839       0.00000000
Si      -0.71902432       1.65985328      -3.15237978       0.00000000
Si       2.11721132       0.31402233       3.03734783       0.00000000
Si       2.44402130      -0.35236899      -2.80814166       0.00000000
