10
Lattice="16.290000149 0.0 0.0 0.0 16.290000149 0.0 0.0 0.0 29.1751946751" Properties=species:S:1:pos:R:3:initial_magmoms:R:1 pbc="T T T"
Si       1.37310040       1.38393325       1.30961614       0.00000000
Si       1.37083609      -1.33968635      -1.36566169       0.00000000
Si      -1.32382315       1.36432009      -1.39264874       0.00000000
Si      -1.36673101      -1.35903725       1.37704001       0.00000000
Si      -2.67340079      -2.67291209      -0.06952449       0.00000000
Si       2.67722894       0.00360009       2.68478894       0.00000000
Si      -2.68408703       2.71578737      -0.03944486       0.00000000
Si       2.70291827      -2.70563870       0.00679782       0.00000000
Si      -2.69024465       0.03523527       2.74194315       0.00000000
Si       0.04952160       2.75485080       2.68312595       0.00000000
