10
Lattice="16.290000149 0.0 0.0 0.0 16.290000149 0.0 0.0 0.0 29.1751946751" Properties=species:S:1:pos:R:3:initial_magmoms:R:1 pbc="T T T"
Si      -1.37613034      -1.36363591      -1.30789480       0.00000000
Si      -1.38122911       1.31479849       1.36108118       0.00000000
Si       1.33143058      -1.36625860       1.37394744       0.00000000
Si       1.32315526       1.38805462      -1.38144547       0.00000000
Si      -2.69343749       0.02710656      -2.64957448       0.00000000
Si      -0.01117494       2.67755474       2.68595595       0.00000000
Si       2.69014691      -0.00073305       2.70503652       0.00000000
Si      -0.04852791      -2.72192870      -2.67413999       0.00000000
Si       2.74673838       0.02780703      -2.65217107       0.00000000
Si       2.69684210      -2.71288775       0.02319428       0.00000000
