10
Lattice="16.290000149 0.0 0.0 0.0 16.290000149 0.0 0.0 0.0 29.1751946751" Properties=species:S:1:pos:R:3:initial_magmoms:R:1 pbc="T T T"
H       -1.67044178      -0.00869886      -1.60407846       0.00000000
Si       1.35835795      -1.36011727       1.33735591       0.00000000
Si       1.24690177       1.48644622      -1.33246586       0.00000000
Si      -1.43312905       1.37627695       1.29625973       0.00000000
Si      -1.12586707      -1.57221307      -1.42400916       0.00000000
Si       2.55865403       0.06713109      -2.63320428       0.00000000
Si      -0.03225420      -2.66142764       2.70865717       0.00000000
Si       2.68555313       0.02909394       2.68557959       0.00000000
Si      -2.73501446      -2.65391795      -0.04542870       0.00000000
Si      -0.07066602       2.74999638       2.65733800       0.00000000
