10
Lattice="16.290000149 0.0 0.0 0.0 16.290000149 0.0 0.0 0.0 29.1751946751" Properties=species:S:1:pos:R:3:initial_magmoms:R:1 pbc="T T T"
Si      -1.32313897      -1.33797753      -1.33754263       0.00000000
Si       1.31590263      -1.43547807       1.27647312       0.00000000
Si      -1.44280531       1.33139474       1.28306671       0.00000000
Si       1.30034340       1.29120731      -1.47064279       0.00000000
Si       2.62965237      -0.05291969       2.64160965       0.00000000
Si      -0.07455933       2.68032079       2.62144959       0.00000000
Si      -2.74045044       0.00564937      -2.59094984       0.00000000
Si       2.66245880       2.68279687      -0.14853092       0.00000000
Si      -0.15135039       2.67430978      -2.69694041       0.00000000
Si      -0.08215047      -2.76971053       2.61167590       0.00000000
