10
Lattice="16.290000149 0.0 0.0 0.0 16.290000149 0.0 0.0 0.0 29.1751946751" Properties=species:S:1:pos:R:3:initial_magmoms:R:1 pbc="T T T"
Si      -0.99237866       0.06416631      -1.29922977       0.00000000
Si       0.54457471      -1.56351421       0.18006930       0.00000000
Si       1.67044178       0.00869886       1.60407846       0.00000000
Si      -2.42287112       1.27361737       0.13589806       0.00000000
Si       0.29364354       1.70398289      -2.44009658       0.00000000
Si       0.23731272       1.38497581       2.90033820       0.00000000
Si      -1.06457269      -2.64521909       1.55864977       0.00000000
Si       2.91734355       1.49514508       0.27161260       0.00000000
Si      -1.14417866       2.72526815       1.52161477       0.00000000
Si       1.47038428      -2.68402187      -1.79789220       0.00000000
