10
Lattice="16.290000149 0.0 0.0 0.0 16.290000149 0.0 0.0 0.0 29.1751946751" Properties=species:S:1:pos:R:3:initial_magmoms:R:1 pbc="T T T"
Si      -1.36211540      -1.39158955      -1.32211187       0.00000000
Si       1.29307903      -1.35307999       1.43031392       0.00000000
Si      -1.35208402       1.32978529       1.40245161       0.00000000
Si       1.36846916       1.36306576      -1.36107826       0.00000000
Si      -2.66245880      -2.68279687       0.14853092       0.00000000
Si      -2.81380919      -0.00848709      -2.54840949       0.00000000
Si       0.06940029      -2.70013268      -2.67392701       0.00000000
Si       2.69063073       2.69969285       0.03366817       0.00000000
Si       2.64922155      -2.74414989       0.13668579       0.00000000
Si      -2.68712186       2.73821871       0.09461516       0.00000000
