10
Lattice="16.290000149 0.0 0.0 0.0 16.290000149 0.0 0.0 0.0 29.1751946751" Properties=species:S:1:pos:R:3:initial_magmoms:R:1 pbc="T T T"
H        1.35871633       0.56606122       0.28148228       0.00000000
Si      -0.46002960       0.42370290      -2.21282182       0.00000000
Si      -1.35493705       1.36381510       1.31810612       0.00000000
Si      -0.45137961      -2.20801178       0.61057847       0.00000000
H        2.28428156      -1.18724779      -0.18030270       0.00000000
H        2.97316938      -0.26111241       1.44201317       0.00000000
Si       0.63319231      -2.11035323       2.70468642       0.00000000
Si       1.36837630       1.71851357      -2.84878271       0.00000000
Si      -2.75947716      -2.03067884       1.21643057       0.00000000
Si      -2.54191117      -0.15545547       2.62506732       0.00000000
