10
Lattice="16.290000149 0.0 0.0 0.0 16.290000149 0.0 0.0 0.0 29.1751946751" Properties=species:S:1:pos:R:3:initial_magmoms:R:1 pbc="T T T"
Si       1.34682626       1.21208743       1.48275050       0.00000000
Si       1.16977351      -1.59109579      -1.28782227       0.00000000
Si      -1.47480702      -1.31085892       1.37305176       0.00000000
Si      -0.28392656       1.82610641      -1.56965465       0.00000000
Si       2.48610652      -0.16366824      -2.63393658       0.00000000
Si       2.68403002       2.61742575       0.13082245       0.00000000
Si       0.64480708       1.01020872      -3.56634662       0.00000000
Si      -0.08468943       2.52063057       2.83456564       0.00000000
Si       2.52738538      -2.83685726       0.16677271       0.00000000
Si       2.62509280      -0.16101297       2.86990263       0.00000000
