10
Lattice="16.290000149 0.0 0.0 0.0 16.290000149 0.0 0.0 0.0 29.1751946751" Properties=species:S:1:pos:R:3:initial_magmoms:R:1 pbc="T T T"
Si       1.36661698      -1.35751087       1.32825909       0.00000000
Si       1.36871839       1.34470693      -1.34197143       0.00000000
Si      -1.34048782      -1.36278883      -1.36490313       0.00000000
Si      -1.31828455       1.36241416       1.39104411       0.00000000
Si      -0.01306458       2.69086367      -2.67837040       0.00000000
Si      -0.00926901      -2.68789889       2.68353441       0.00000000
Si       2.71565705       0.00415395       2.67603638       0.00000000
Si      -2.69912108      -2.71494029      -0.00247989       0.00000000
Si      -2.69117318      -0.00229689      -2.72359195       0.00000000
Si       2.71862183      -0.02019960      -2.69727592       0.00000000
