10
Lattice="16.290000149 0.0 0.0 0.0 16.290000149 0.0 0.0 0.0 29.1751946751" Properties=species:S:1:pos:R:3:initial_magmoms:R:1 pbc="T T T"
Si       0.45137961       2.20801178      -0.61057847       0.00000000
Si       1.08457192       0.09765855       2.09410795       0.00000000
Si      -0.42295356      -1.81454312      -1.48329607       0.00000000
Si      -2.30809754       0.17733294       0.60585209       0.00000000
H        2.73566117       1.02076399      -0.79088118       0.00000000
H       -0.07345161      -2.93128779       1.04543475       0.00000000
H        1.81009595       2.77407300      -0.32909620       0.00000000
Si      -1.26934939      -3.29698200       0.15349070       0.00000000
Si      -1.98551644      -0.73492336      -2.84697385       0.00000000
Si      -2.09053156       2.05255631       2.01448884       0.00000000
