10
Lattice="16.290000149 0.0 0.0 0.0 16.290000149 0.0 0.0 0.0 29.1751946751" Properties=species:S:1:pos:R:3:initial_magmoms:R:1 pbc="T T T"
Si      -1.35871633      -0.56606122      -0.28148228       0.00000000
H        0.92556523      -1.75330901      -0.46178498       0.00000000
H        1.61445304      -0.82717363       1.16053089       0.00000000
Si       1.07245216      -1.08413209       2.54474801       0.00000000
Si      -2.71365338       0.79775389       1.03662384       0.00000000
Si      -1.81874594      -0.14235831      -2.49430409       0.00000000
Si       2.05952843      -1.81596035      -1.46205653       0.00000000
Si      -1.17266824       2.10281096       2.23537424       0.00000000
Si      -1.81009595      -2.77407300       0.32909620       0.00000000
Si       0.00965997       1.15245235      -3.13026499       0.00000000
