10
Lattice="16.290000149 0.0 0.0 0.0 16.290000149 0.0 0.0 0.0 29.1751946751" Properties=species:S:1:pos:R:3:initial_magmoms:R:1 pbc="T T T"
Si      -1.31193647      -1.33665169       1.36650777       0.00000000
Si      -1.46906981       1.29324829      -1.27174674       0.00000000
Si       1.23146687       1.36146103       1.44446389       0.00000000
Si       1.37927907      -1.39542601      -1.29806276       0.00000000
Si       2.61152636      -0.08937525       2.60131871       0.00000000
Si      -0.08616283       2.63072898      -2.65295880       0.00000000
Si       2.64104384       2.65663008       0.05636648       0.00000000
Si      -2.61512019       0.07651902       2.70430714       0.00000000
Si       2.71617332      -0.04498500      -2.66815908       0.00000000
Si      -2.58721542      -2.79965660       0.06803655       0.00000000
