10
Lattice="16.290000149 0.0 0.0 0.0 16.290000149 0.0 0.0 0.0 29.1751946751" Properties=species:S:1:pos:R:3:initial_magmoms:R:1 pbc="T T T"
Si      -1.23755131       1.36612828       1.41788529       0.00000000
Si       1.32240592      -1.37417554       1.33482351       0.00000000
Si       1.34937004       1.41061627      -1.30512316       0.00000000
Si      -1.38797317      -1.35848827      -1.33047640       0.00000000
H       -1.88379191       0.53950851       2.49468337       0.00000000
Si       2.61052139       0.03575655       2.65374653       0.00000000
Si      -2.81654103       2.45206856       0.09619062       0.00000000
Si      -0.08944839       2.76022650      -2.59180759       0.00000000
Si       2.68791356       0.04763196      -2.67793277       0.00000000
Si      -0.00407250      -2.70208748      -2.66591259       0.00000000
