10
Lattice="16.28999089631971 0.0 0.0 0.0 16.28999089631971 0.0 0.0 0.0 34.383488856416385" Properties=species:S:1:pos:R:3:initial_magmoms:R:1 pbc="T T T"
Si      -1.35878148       1.35489794       1.36113993       0.00000000
Si       1.35482301       1.35426263      -1.36957765       0.00000000
Si       1.35995436      -1.36013672       1.36182760       0.00000000
Si      -1.37984445      -1.35315884      -1.38431786       0.00000000
Si       2.53244340      -0.23742023      -2.70707548       0.00000000
Si      -2.71482135       2.71138253       0.00361027       0.00000000
Si      -2.71752386      -2.70926876       0.00165041       0.00000000
Si       2.71725345       2.71271831       0.00192548       0.00000000
Si       0.00058644       2.71299524       2.71829138       0.00000000
Si       2.71562445      -2.71619201       0.00687670       0.00000000
