10
Lattice="16.28999089631971 0.0 0.0 0.0 16.28999089631971 0.0 0.0 0.0 34.383488856416385" Properties=species:S:1:pos:R:3:initial_magmoms:R:1 pbc="T T T"
Si       1.35741312       1.35713619       1.35718583       0.00000000
Si      -1.35612621       1.35664749      -1.35931761       0.00000000
Si      -1.35770634      -1.35813314       1.35742652       0.00000000
Si       1.35718506      -1.35611318      -1.36282473       0.00000000
Si      -0.00058644       2.71453302       2.71485303       0.00000000
Si      -2.71342530      -2.71620754       0.00058452       0.00000000
Si       2.71471221      -0.00029322       2.71495618       0.00000000
Si      -2.71520091      -0.00058644       2.71478426       0.00000000
Si      -0.00068418      -2.71544445       2.71499056       0.00000000
Si      -2.71625976       2.71420722      -0.00030945       0.00000000
