10
Lattice="16.28999089631971 0.0 0.0 0.0 16.28999089631971 0.0 0.0 0.0 34.383488856416385" Properties=species:S:1:pos:R:3:initial_magmoms:R:1 pbc="T T T"
Si      -1.35571896      -1.35807440      -1.35684200       0.00000000
Si       1.35702216      -1.35731131       1.35756405       0.00000000
Si      -1.35749457       1.35754670       1.35735775       0.00000000
Si       1.35770634       1.35813314      -1.35742652       0.00000000
Si      -0.00004887      -2.71412970      -2.71179290       0.00000000
Si       2.71448415      -2.71417857       0.00013753       0.00000000
Si      -2.71365336       0.00385910       2.71526563       0.00000000
Si      -2.71503801      -2.71465098       0.00027507       0.00000000
Si      -2.71508688       2.71505756      -0.00037822       0.00000000
Si      -0.00011403      -2.71579128       2.71450920       0.00000000
