10
Lattice="16.28999089631971 0.0 0.0 0.0 16.28999089631971 0.0 0.0 0.0 34.383488856416385" Properties=species:S:1:pos:R:3:initial_magmoms:R:1 pbc="T T T"
Si       1.35830907      -1.35686710      -1.36220582       0.00000000
Si      -1.35523026       1.36278328      -1.36144939       0.00000000
Si      -1.36989126      -1.35448876       1.38108237       0.00000000
Si       1.36715454       1.37252307       1.37963826       0.00000000
Si       0.19828188      -2.48561749       2.78279484       0.00000000
Si      -2.71217097       2.71428801      -0.00601711       0.00000000
Si       2.71156824       2.71583556      -0.00450424       0.00000000
Si       2.71531494      -2.71243945      -0.00323205       0.00000000
Si      -2.71336014      -2.71556713      -0.00285383       0.00000000
Si       0.00065160      -2.71346572      -2.71935727       0.00000000
