10
Lattice="16.28999089631971 0.0 0.0 0.0 16.28999089631971 0.0 0.0 0.0 34.383488856416385" Properties=species:S:1:pos:R:3:initial_magmoms:R:1 pbc="T T T"
Si       1.35268902      -1.29774937      -1.54433527       0.00000000
Si       1.29647223       1.58110740       1.40047467       0.00000000
Si      -1.36464588       1.39369095      -1.54364759       0.00000000
Si      -1.08681993      -1.78523250       1.53989979       0.00000000
Si       0.95949729      -3.34605464       1.19603033       0.00000000
Si       2.88023490      -2.45533794      -0.10896134       0.00000000
Si      -2.75975406      -2.63962134      -0.08221097       0.00000000
Si      -2.62857069       2.81650842      -0.13189514       0.00000000
Si       2.76757326       2.71728603      -0.11879502       0.00000000
Si      -0.01446552      -2.67027243      -2.92397353       0.00000000
