10
Lattice="16.28999089631971 0.0 0.0 0.0 16.28999089631971 0.0 0.0 0.0 34.383488856416385" Properties=species:S:1:pos:R:3:initial_magmoms:R:1 pbc="T T T"
Si      -0.46190295      -2.26454525      -0.02791941       0.00000000
Si      -1.53375237       0.91082277       1.58934328       0.00000000
Si      -0.04456944       0.67865769      -2.29420519       0.00000000
Si       2.42320266       0.05732451       0.22452431       0.00000000
Si       0.78591105      -2.56312466       1.97600649       0.00000000
Si      -0.06268392       1.92717216       3.11127910       0.00000000
Si       2.96878734      -1.86838969      -1.06626697       0.00000000
Si       1.11081510      -3.22506881      -1.46102402       0.00000000
Si      -2.70062136       2.59533909       0.24477619       0.00000000
Si       2.97703008       2.36029068       0.08444590       0.00000000
