10
Lattice="16.28999089631971 0.0 0.0 0.0 16.28999089631971 0.0 0.0 0.0 34.383488856416385" Properties=species:S:1:pos:R:3:initial_magmoms:R:1 pbc="T T T"
Si      -1.35653346      -1.35728280       1.35735775       0.00000000
Si       1.35886293       1.35702216       1.35756405       0.00000000
Si       1.36013355      -1.35755973      -1.35900816       0.00000000
Si      -1.35858600       1.35845568      -1.36134624       0.00000000
Si      -2.71423980       0.00053757       2.71488741       0.00000000
Si      -2.71503801       2.71480995       0.00178794       0.00000000
Si       0.00105885      -2.71479366       2.71509371       0.00000000
Si       2.71625976      -2.71420722       0.00030945       0.00000000
Si       2.71461447       2.71603170       0.00000000       0.00000000
Si       2.71567332       0.00032580       2.71516248       0.00000000
