10
Lattice="16.28999089631971 0.0 0.0 0.0 16.28999089631971 0.0 0.0 0.0 34.383488856416385" Properties=species:S:1:pos:R:3:initial_magmoms:R:1 pbc="T T T"
Si       1.35681039      -1.35669636       1.35759843       0.00000000
Si       1.35575154       1.35900954      -1.35756405       0.00000000
Si      -1.35886293      -1.35702216      -1.35756405       0.00000000
Si      -1.35796698       1.35829278       1.35801103       0.00000000
Si       0.00182448      -2.71257822       2.71413098       0.00000000
Si       2.71480995      -2.71409319      -0.00006877       0.00000000
Si      -2.71420722       0.00127062       2.71530002       0.00000000
Si      -2.71539639      -2.71430496      -0.00020630       0.00000000
Si       2.71528236       0.00268785       2.71509371       0.00000000
Si       0.00127062      -2.71458189      -2.71657221       0.00000000
