10
Lattice="16.28999089631971 0.0 0.0 0.0 16.28999089631971 0.0 0.0 0.0 34.383488856416385" Properties=species:S:1:pos:R:3:initial_magmoms:R:1 pbc="T T T"
Si      -1.32362766      -0.15045444       1.90670306       0.00000000
Si       2.04874443      -0.96251094       0.67261018       0.00000000
Si       0.54405342       2.30995458      -0.09066931       0.00000000
Si      -1.22868954      -1.31971806      -1.56104565       0.00000000
Si      -1.10512989      -2.69356779       2.09220208       0.00000000
Si       1.11462696       2.65458582       2.24837198       0.00000000
Si      -3.43148850       0.69377481       1.20156607       0.00000000
Si       2.25631161      -0.66997512       2.97799002       0.00000000
Si      -0.80340651       1.76945238       3.31604867       0.00000000
Si       3.80366613      -0.30613797      -0.73790447       0.00000000
