10
Lattice="16.28999089631971 0.0 0.0 0.0 16.28999089631971 0.0 0.0 0.0 34.383488856416385" Properties=species:S:1:pos:R:3:initial_magmoms:R:1 pbc="T T T"
Si      -1.21852458       2.03890527       0.08227973       0.00000000
Si       2.02272930      -0.31348476      -1.22061454       0.00000000
Si      -1.42884477      -1.55419632      -1.10859307       0.00000000
Si       0.59232069      -0.53089110       2.27464098       0.00000000
Si       3.00482082      -1.94859351       0.18151054       0.00000000
Si      -3.41778861       1.25696898      -0.44591972       0.00000000
Si      -1.19920464       2.65183281       2.39016956       0.00000000
Si       2.75823909       1.82055411      -1.83085304       0.00000000
Si      -0.53063046      -2.54695779       2.77316746       0.00000000
Si      -1.83619251      -0.77413338      -3.26901203       0.00000000
