10
Lattice="16.28999089631971 0.0 0.0 0.0 16.28999089631971 0.0 0.0 0.0 34.383488856416385" Properties=species:S:1:pos:R:3:initial_magmoms:R:1 pbc="T T T"
Si      -0.55382742      -2.30296617       0.14007841       0.00000000
Si       0.22964013       0.48690810      -2.32363748       0.00000000
Si       2.10991338       0.79133562       0.98247436       0.00000000
Si      -1.74338838       0.99357597       1.48340769       0.00000000
Si       1.17345015      -2.48111361       1.95245757       0.00000000
Si      -2.02549860       0.36799110      -2.83828982       0.00000000
Si       1.31962032       3.06393723       1.44520761       0.00000000
Si       1.40634828      -1.37867157      -3.14296209       0.00000000
Si       2.17616481      -0.58683096       3.00070174       0.00000000
Si      -0.32879736       2.23560702       3.02299944       0.00000000
