10
Lattice="16.28999089631971 0.0 0.0 0.0 16.28999089631971 0.0 0.0 0.0 34.383488856416385" Properties=species:S:1:pos:R:3:initial_magmoms:R:1 pbc="T T T"
Si      -1.36834371      -1.33788141       1.34999968       0.00000000
Si      -1.35177678       1.35723393      -1.36282473       0.00000000
Si       1.36430379      -1.35951453      -1.35904254       0.00000000
Si       1.37665161       1.35816246       1.38692757       0.00000000
Si       0.10883349      -2.58802488       2.59427007       0.00000000
Si      -2.70837540       2.71041165      -0.00151287       0.00000000
Si      -2.70891297      -0.00259011      -2.71732864       0.00000000
Si       0.00563634       2.71251306      -2.71801631       0.00000000
Si      -2.71363707      -2.71700910      -0.00048137       0.00000000
Si       2.72029968       2.71353933      -0.00189109       0.00000000
