10
Lattice="16.28999089631971 0.0 0.0 0.0 16.28999089631971 0.0 0.0 0.0 34.383488856416385" Properties=species:S:1:pos:R:3:initial_magmoms:R:1 pbc="T T T"
Si      -0.23294700      -1.19654937      -2.00167031       0.00000000
Si       1.30551318       1.80924885       0.81406394       0.00000000
Si      -0.61928064      -1.08968697       2.05252351       0.00000000
Si      -2.34602064       0.56927034       1.56565304       0.00000000
Si      -1.18001502       0.95107536      -3.28909200       0.00000000
Si       3.34153512      -0.61028856      -1.37269279       0.00000000
Si       3.34350621      -1.54738710       0.74203049       0.00000000
Si      -1.62541620       2.77550649       2.06342309       0.00000000
Si       0.12671991       3.79312650       0.94162675       0.00000000
Si       3.31752366       2.04340131      -0.35635068       0.00000000
