10
Lattice="16.28999089631971 0.0 0.0 0.0 16.28999089631971 0.0 0.0 0.0 34.383488856416385" Properties=species:S:1:pos:R:3:initial_magmoms:R:1 pbc="T T T"
Si      -0.59605110       2.27036988       0.05356951       0.00000000
Si       0.24410565      -0.55495143      -2.28138014       0.00000000
Si      -1.98391023      -1.29002139       0.31337129       0.00000000
Si       1.93995981      -0.08280207       1.40016522       0.00000000
Si      -1.75888017       0.50904621      -2.92197928       0.00000000
Si      -2.00922489       2.27341611       2.03230601       0.00000000
Si       1.49703471       3.27836250      -0.59339058       0.00000000
Si       2.90203092      -2.09795652       0.74735993       0.00000000
Si      -3.18005235       0.10941993       1.80915704       0.00000000
Si      -2.98885662      -1.22124501      -1.84955767       0.00000000
