10
Lattice="16.28999089631971 0.0 0.0 0.0 16.28999089631971 0.0 0.0 0.0 34.383488856416385" Properties=species:S:1:pos:R:3:initial_magmoms:R:1 pbc="T T T"
Si      -1.30754943      -1.37538099       1.32426844       0.00000000
Si      -1.24781400       0.29857941      -2.00392590       0.00000000
Si       1.57134969       1.43899737       1.25902229       0.00000000
Si      -0.78591105       2.56312466      -1.97600649       0.00000000
Si      -2.34093816       0.32325876       2.58177991       0.00000000
Si       0.32490405      -0.66194415      -3.43703052       0.00000000
Si       1.63729161       2.62044917      -1.75148219       0.00000000
Si       0.39038985      -2.39054121       2.60967182       0.00000000
Si       2.18287629       0.69473496      -3.04227346       0.00000000
Si      -2.09393289      -3.25177722      -0.13102184       0.00000000
