10
Lattice="16.28999089631971 0.0 0.0 0.0 16.28999089631971 0.0 0.0 0.0 34.383488856416385" Properties=species:S:1:pos:R:3:initial_magmoms:R:1 pbc="T T T"
Si       1.35529542       1.35710361      -1.35646378       0.00000000
Si      -1.35721764       1.35726651       1.35728898       0.00000000
Si       1.35783666      -1.35736425       1.35742652       0.00000000
Si      -1.35811359      -1.35943308      -1.35646378       0.00000000
Si      -2.71463076       0.00198738       2.71248057       0.00000000
Si       0.00050499       2.71552671      -2.71186167       0.00000000
Si      -2.71230129      -0.00096111      -2.71536878       0.00000000
Si       0.00043983       2.71386513       2.71444043       0.00000000
Si      -2.71448415       2.71500543       0.00020630       0.00000000
Si      -2.71487511      -2.71495656       0.00013753       0.00000000
