10
Lattice="16.28999089631971 0.0 0.0 0.0 16.28999089631971 0.0 0.0 0.0 34.383488856416385" Properties=species:S:1:pos:R:3:initial_magmoms:R:1 pbc="T T T"
Si      -0.77568093      -1.80983529      -1.33720901       0.00000000
Si       1.92073761       0.89071669      -1.30499167       0.00000000
Si      -2.04631722       1.56082213       0.34386946       0.00000000
Si      -0.68781267      -2.75441094       1.13833480       0.00000000
Si       0.39319173       2.04830527      -2.74036559       0.00000000
Si       2.02211028      -0.23806206       2.85781966       0.00000000
Si       1.52086698      -2.51146188       2.15017268       0.00000000
Si      -2.34385407      -0.67870656      -2.73892149       0.00000000
Si      -0.95949729       3.34605464      -1.19603033       0.00000000
Si      -2.92374549      -0.25192485       2.65179368       0.00000000
