10
Lattice="16.28999089631971 0.0 0.0 0.0 16.28999089631971 0.0 0.0 0.0 34.383488856416385" Properties=species:S:1:pos:R:3:initial_magmoms:R:1 pbc="T T T"
Si       1.35671265       1.35626467      -1.35835487       0.00000000
Si      -1.36256076       1.35533614       1.35632624       0.00000000
Si      -1.35868374      -1.35888656      -1.35832049       0.00000000
Si       1.35874890      -1.36269470       1.35976459       0.00000000
Si       2.71054197       0.02561602       2.71107084       0.00000000
Si      -0.00470781       2.71398731       2.71127715       0.00000000
Si      -2.71357191       2.71520905      -0.00192548       0.00000000
Si       2.71337643      -0.00157198      -2.71619399       0.00000000
Si       2.71608057       2.71367779      -0.00137534       0.00000000
Si      -0.00058644       2.71369409      -2.71612522       0.00000000
