10
Lattice="16.28999089631971 0.0 0.0 0.0 16.28999089631971 0.0 0.0 0.0 34.383488856416385" Properties=species:S:1:pos:R:3:initial_magmoms:R:1 pbc="T T T"
Si       1.66314384       1.47009105      -0.77658591       0.00000000
Si      -1.68487470       1.10177415       1.22828206       0.00000000
Si       0.32633757      -1.85535674       1.42921928       0.00000000
Si      -0.36287604      -1.14147125      -2.04970407       0.00000000
Si       2.64635937      -1.70471168       0.42504893       0.00000000
Si      -1.64843397      -1.06247778       2.62050468       0.00000000
Si       3.09081573      -0.27928716      -1.43437681       0.00000000
Si      -2.02979916       0.13799259      -3.05727839       0.00000000
Si       1.76790483      -1.15062134      -3.10362736       0.00000000
Si       0.76807350       2.87064009      -2.46416287       0.00000000
