10
Lattice="16.28999089631971 0.0 0.0 0.0 16.28999089631971 0.0 0.0 0.0 34.383488856416385" Properties=species:S:1:pos:R:3:initial_magmoms:R:1 pbc="T T T"
Si      -1.70116470      -1.67903866       0.19309778       0.00000000
Si      -0.21219354      -0.08295357       2.38910371       0.00000000
Si       1.97477154      -0.79287895      -1.19128540       0.00000000
Si      -0.03644073       2.16425193      -1.39222263       0.00000000
Si       1.64843397       1.06247778      -2.62050468       0.00000000
Si      -3.34564020      -0.33992017      -0.71999066       0.00000000
Si      -2.16394731       1.40764659       2.38317978       0.00000000
Si       0.81041121      -2.73477727      -2.06803048       0.00000000
Si      -1.15417908      -3.62758330      -1.01806129       0.00000000
Si       1.73141523       0.77861639       3.46890541       0.00000000
