10
Lattice="16.28999089631971 0.0 0.0 0.0 16.28999089631971 0.0 0.0 0.0 34.383488856416385" Properties=species:S:1:pos:R:3:initial_magmoms:R:1 pbc="T T T"
Si       1.35435060      -1.35163017       1.36323733       0.00000000
Si      -1.36399428       1.36340784       1.36199952       0.00000000
Si      -1.36322865      -1.36288656      -1.37070543       0.00000000
Si       1.37639097       1.36161594      -1.38377804       0.00000000
Si       2.70251100      -2.70500337       0.00151287       0.00000000
Si       2.69983944       2.72686455       0.00715177       0.00000000
Si      -2.71847520      -2.71018359       0.00299137       0.00000000
Si      -0.00493587      -2.70969489       2.71949480       0.00000000
Si       2.70953199       0.00542457       2.71994179       0.00000000
Si      -2.71904535       2.71948518       0.00137534       0.00000000
