10
Lattice="16.28999089631971 0.0 0.0 0.0 16.28999089631971 0.0 0.0 0.0 34.383488856416385" Properties=species:S:1:pos:R:3:initial_magmoms:R:1 pbc="T T T"
Si      -0.00197109       0.93709854      -2.11472328       0.00000000
Si       0.40902561       1.63447344       1.64439127       0.00000000
Si      -0.70317414      -2.15839242       0.66325787       0.00000000
Si       2.28846807      -0.25666524      -0.65995705       0.00000000
Si      -0.59186457      -1.33467228      -3.10163311       0.00000000
Si      -1.63494585      -2.83898862      -1.50833573       0.00000000
Si       1.37847609      -2.98362753       1.51799750       0.00000000
Si       0.56280321       0.30613797       3.59414248       0.00000000
Si      -0.02598255       3.59078841      -1.09838117       0.00000000
Si      -3.34350621       1.54738710      -0.74203049       0.00000000
