10
Lattice="16.28999089631971 0.0 0.0 0.0 16.28999089631971 0.0 0.0 0.0 34.383488856416385" Properties=species:S:1:pos:R:3:initial_magmoms:R:1 pbc="T T T"
Si       1.35603987      -1.35648459       1.35752967       0.00000000
Si      -1.35668799       1.36039419       1.36124308       0.00000000
Si      -1.34430086      -1.35241209      -1.38534249       0.00000000
Si       1.35929787       1.36220238      -1.37621710       0.00000000
Si      -2.70586252       2.70764235       0.00763314       0.00000000
Si       2.71482135      -2.71138253      -0.00361027       0.00000000
Si      -2.71259029      -2.71497611      -0.00343835       0.00000000
Si       0.00042028      -2.71349372       2.71468111       0.00000000
Si      -2.71369801       0.00219915       2.71536878       0.00000000
Si       2.71540779       0.00161271       2.71468111       0.00000000
