10
Lattice="16.28999089631971 0.0 0.0 0.0 16.28999089631971 0.0 0.0 0.0 34.383488856416385" Properties=species:S:1:pos:R:3:initial_magmoms:R:1 pbc="T T T"
Si       0.10573839      -0.87042357      -2.19077960       0.00000000
Si      -2.30676174       0.54727884      -0.09764916       0.00000000
Si       1.43290098       1.92125889       0.15551661       0.00000000
Si       0.15423372      -1.57538961       1.87933378       0.00000000
Si      -3.42971289      -1.46878785       0.40087732       0.00000000
Si      -0.87635313       0.76468518      -3.59290468       0.00000000
Si      -0.35839629      -3.68020422       0.90156997       0.00000000
Si      -1.44656829      -2.65377132      -2.45752686       0.00000000
Si      -2.89908243       1.07816994      -2.37229014       0.00000000
Si       2.46057192      -1.75969467       2.53323934       0.00000000
