10
Lattice="16.28999089631971 0.0 0.0 0.0 16.28999089631971 0.0 0.0 0.0 34.383488856416385" Properties=species:S:1:pos:R:3:initial_magmoms:R:1 pbc="T T T"
Si      -1.12295115      -2.01606669       0.49852648       0.00000000
Si       2.30676174      -0.54727884       0.09764916       0.00000000
Si      -0.59232069       0.53089110      -2.27464098       0.00000000
Si      -0.66790629       1.31689989       1.95088586       0.00000000
Si       2.41250013      -1.41770241      -2.09313044       0.00000000
Si       0.52163838       3.22989975       1.39909933       0.00000000
Si      -1.79152533       3.18272391       0.11552859       0.00000000
Si       1.43040861       0.21740634      -3.49525551       0.00000000
Si       2.46099546      -2.12266845       1.97698295       0.00000000
Si      -1.81084527       2.56979637      -2.19236124       0.00000000
