10
Lattice="16.28999089631971 0.0 0.0 0.0 16.28999089631971 0.0 0.0 0.0 34.383488856416385" Properties=species:S:1:pos:R:3:initial_magmoms:R:1 pbc="T T T"
Si       1.98881352      -1.04091471      -0.60009537       0.00000000
Si      -0.10573839       0.87042357       2.19077960       0.00000000
Si      -0.98209152       1.63510875      -1.40212508       0.00000000
Si      -1.55230668      -1.78334775      -0.26674726       0.00000000
Si      -2.41250013       1.41770241       2.09313044       0.00000000
Si      -3.00482082       1.94859351      -0.18151054       0.00000000
Si       1.72416618      -1.72436166      -2.83632996       0.00000000
Si      -2.35874313      -2.46394395       1.77233231       0.00000000
Si       1.32716259       2.79168246       2.34629621       0.00000000
Si      -1.05914322       0.91191420      -3.65252568       0.00000000
