10
Lattice="16.28999089631971 0.0 0.0 0.0 16.28999089631971 0.0 0.0 0.0 34.383488856416385" Properties=species:S:1:pos:R:3:initial_magmoms:R:1 pbc="T T T"
Si       1.35687555       1.35723393      -1.35697953       0.00000000
Si      -1.35793440      -1.35772263      -1.35687638       0.00000000
Si       1.35878148      -1.35842310       1.35887062       0.00000000
Si      -1.35972630       1.35684297       1.36031473       0.00000000
Si       2.71489140      -2.71337643      -0.00044699       0.00000000
Si      -2.71518462      -2.71309950       0.00041260       0.00000000
Si       2.71446786      -0.00006516      -2.71426851       0.00000000
Si      -0.00180819       2.71487511      -2.71406221       0.00000000
Si      -0.00118917      -2.71476108      -2.71430289       0.00000000
Si      -2.71533123       0.00055386      -2.71426851       0.00000000
