10
Lattice="16.28999089631971 0.0 0.0 0.0 16.28999089631971 0.0 0.0 0.0 34.383488856416385" Properties=species:S:1:pos:R:3:initial_magmoms:R:1 pbc="T T T"
Si      -1.35487188       1.36052451      -1.35948953       0.00000000
Si       1.35972630      -1.35684297      -1.36031473       0.00000000
Si      -1.35596331      -1.35224919       1.37001088       0.00000000
Si       1.35874890       1.37046141       1.37781594       0.00000000
Si       0.04370607      -2.66216067       2.74414778       0.00000000
Si      -2.71394658      -2.71516833      -0.00075644       0.00000000
Si       2.71388142       2.71565703      -0.00333520       0.00000000
Si      -2.71415835       2.71663443      -0.00134096       0.00000000
Si      -2.71376739       0.00097740      -2.71732864       0.00000000
Si       0.00179190      -2.71456560      -2.71719111       0.00000000
