10
Lattice="16.28999089631971 0.0 0.0 0.0 16.28999089631971 0.0 0.0 0.0 34.383488856416385" Properties=species:S:1:pos:R:3:initial_magmoms:R:1 pbc="T T T"
Si      -1.29640282       1.30464981       1.41040119       0.00000000
Si      -1.49594721      -1.11418713      -1.46907462       0.00000000
Si       1.39198376       1.24787916      -1.47361324       0.00000000
Si       1.42635566      -1.41366249       1.37014154       0.00000000
Si       0.25644044      -2.00520126      -2.95457970       0.00000000
Si      -2.60677860      -2.72442105      -0.05777805       0.00000000
Si      -3.00350526       2.28522636       0.17739483       0.00000000
Si      -2.63880474      -0.06822252       2.75399178       0.00000000
Si       0.06973097       2.65823478       2.74879987       0.00000000
Si       2.21456360      -0.35693019      -3.13282381       0.00000000
