10
Lattice="16.28999089631971 0.0 0.0 0.0 16.28999089631971 0.0 0.0 0.0 34.383488856416385" Properties=species:S:1:pos:R:3:initial_magmoms:R:1 pbc="T T T"
Si       1.24672257      -1.34229600      -1.55183087       0.00000000
Si       1.31220837       1.44541170       1.55014608       0.00000000
Si      -1.45512054       1.37121075      -1.53436405       0.00000000
Si      -1.32102126      -1.40198256       1.69634475       0.00000000
Si       2.64639195      -2.65220748      -0.17769397       0.00000000
Si      -2.72293866      -2.57497659      -0.32702155       0.00000000
Si       2.60438004       2.79622737      -0.07884138       0.00000000
Si       2.60268588       0.00995319      -2.92184175       0.00000000
Si      -2.62850553       2.95340958      -0.13715581       0.00000000
Si      -0.11126070      -2.70521514      -2.92259819       0.00000000
