10
Lattice="16.28999089631971 0.0 0.0 0.0 16.28999089631971 0.0 0.0 0.0 34.383488856416385" Properties=species:S:1:pos:R:3:initial_magmoms:R:1 pbc="T T T"
Si       0.14665887       0.91945647      -2.14188625       0.00000000
Si      -2.01201048      -0.23415246       1.17041461       0.00000000
Si       1.72367748      -0.25290225       1.56193962       0.00000000
Si       0.02401146      -2.65368987      -1.01634212       0.00000000
Si       0.43500816      -1.95631497       2.74277244       0.00000000
Si       2.36866374      -2.02683438      -1.74269372       0.00000000
Si       3.58384887      -0.60087294       0.07385578       0.00000000
Si      -1.21244841      -0.34946937       3.41325085       0.00000000
Si       0.97599906      -0.89793738      -3.41899289       0.00000000
Si       0.02598255      -3.59078841       1.09838117       0.00000000
