10
Lattice="16.28999089631971 0.0 0.0 0.0 16.28999089631971 0.0 0.0 0.0 34.383488856416385" Properties=species:S:1:pos:R:3:initial_magmoms:R:1 pbc="T T T"
Si      -1.07256618      -0.46143054       2.03526299       0.00000000
Si      -0.79956207       0.11531691      -2.24283623       0.00000000
Si       1.64745657      -1.60684560      -0.67047841       0.00000000
Si       0.65288691       2.27858004       0.47332337       0.00000000
Si       2.88223857       1.68252894      -0.05900210       0.00000000
Si       2.93612589       0.09656712      -1.85131123       0.00000000
Si      -2.15378235      -2.43898767       1.33466463       0.00000000
Si      -1.97835534       2.09919456      -2.11527342       0.00000000
Si       1.21244841       0.34946937      -3.41325085       0.00000000
Si       1.80123417      -2.93518107       1.27927280       0.00000000
