10
Lattice="16.28999089631971 0.0 0.0 0.0 16.28999089631971 0.0 0.0 0.0 34.383488856416385" Properties=species:S:1:pos:R:3:initial_magmoms:R:1 pbc="T T T"
Si       1.34604270       1.36498797       1.37856206       0.00000000
Si      -1.36824597      -1.35013149       1.37316385       0.00000000
Si      -1.38046347       1.39250178      -1.36979770       0.00000000
Si       1.42475598      -1.39442400      -1.43621632       0.00000000
Si       2.42615115       0.23130171      -2.83198874       0.00000000
Si       2.71042794      -2.71109583       0.02794004       0.00000000
Si       2.69977428       2.72196126      -0.00207676       0.00000000
Si       2.70342324       0.00597843       2.73526652       0.00000000
Si      -2.72831436      -2.71736748      -0.02372462       0.00000000
Si      -2.73873996       2.70743878       0.03118928       0.00000000
