10
Lattice="16.28999089631971 0.0 0.0 0.0 16.28999089631971 0.0 0.0 0.0 34.383488856416385" Properties=species:S:1:pos:R:3:initial_magmoms:R:1 pbc="T T T"
Si      -1.35479043       1.35842310      -1.35539789       0.00000000
Si      -1.35529542      -1.35710361       1.35646378       0.00000000
Si       1.35974259       1.35837423       1.35653254       0.00000000
Si       1.35992178      -1.35633798      -1.36375308       0.00000000
Si      -0.01057221       2.70123229      -2.70572765       0.00000000
Si      -2.71046052       2.71447839      -0.00044699       0.00000000
Si      -2.71251306       0.00016290       2.71375276       0.00000000
Si       0.00254124      -2.71446786       2.71389029       0.00000000
Si       0.00228060       2.71524148       2.71395906       0.00000000
Si      -2.71340901      -2.71653669       0.00000000       0.00000000
