10
Lattice="16.28999089631971 0.0 0.0 0.0 16.28999089631971 0.0 0.0 0.0 34.383488856416385" Properties=species:S:1:pos:R:3:initial_magmoms:R:1 pbc="T T T"
Si       0.71573373       2.18166661       0.38117557       0.00000000
Si       2.03185170      -0.65720376      -0.97920793       0.00000000
Si      -0.97555923      -1.33529130       1.72945607       0.00000000
Si      -1.90060317       0.15972345      -1.49888027       0.00000000
Si      -2.08417518      -2.92539078       0.37031038       0.00000000
Si      -0.84528810       2.91464657       2.00950975       0.00000000
Si      -3.29655843       1.55313162      -0.14736772       0.00000000
Si       0.76519017       3.24341135      -1.75355891       0.00000000
Si      -2.40184647      -2.11367637      -2.20652725       0.00000000
Si       3.94770231      -0.44098659       0.43096289       0.00000000
