10
Lattice="16.28999089631971 0.0 0.0 0.0 16.28999089631971 0.0 0.0 0.0 34.383488856416385" Properties=species:S:1:pos:R:3:initial_magmoms:R:1 pbc="T T T"
Si      -1.53168354      -0.37248714      -1.71473993       0.00000000
Si       1.32390459       1.65570324      -1.04608385       0.00000000
Si      -0.94975587       1.34433618       1.70277447       0.00000000
Si       0.85628385      -2.25676773       0.21090844       0.00000000
Si       0.07613946      -1.59808158      -3.16538014       0.00000000
Si       0.90601722       2.73047183       2.25040060       0.00000000
Si      -0.84784563       0.05828562       3.66143101       0.00000000
Si      -1.94383683       1.73921555      -2.70900783       0.00000000
Si      -1.08875844      -3.73365171       0.27881587       0.00000000
Si       1.46451987       3.61659896       0.21922925       0.00000000
