10
Lattice="16.28999089631971 0.0 0.0 0.0 16.28999089631971 0.0 0.0 0.0 34.383488856416385" Properties=species:S:1:pos:R:3:initial_magmoms:R:1 pbc="T T T"
Si       1.21062393      -1.92166614      -0.26516561       0.00000000
Si      -1.97472267      -1.16307342      -0.38805227       0.00000000
Si       0.26464734       0.68344695       2.23623460       0.00000000
Si       0.60562962       1.35553977      -1.86007902       0.00000000
Si       3.35311731       0.94434759       0.45224628       0.00000000
Si       2.18059569       1.97486928       2.15694623       0.00000000
Si      -2.53322532      -2.04920055       1.64311908       0.00000000
Si      -3.50546139       0.45939429      -0.95225126       0.00000000
Si       3.20616522      -1.37174832      -1.29426401       0.00000000
Si      -1.72416618       1.72436166       2.83632996       0.00000000
