10
Lattice="16.28999089631971 0.0 0.0 0.0 16.28999089631971 0.0 0.0 0.0 34.383488856416385" Properties=species:S:1:pos:R:3:initial_magmoms:R:1 pbc="T T T"
Si      -1.99554129      -0.54991782       1.02909840       0.00000000
Si       0.19075590      -2.10316769      -1.00375775       0.00000000
Si       0.53006587       1.65156165      -1.61158941       0.00000000
Si       2.00322107       0.71012997       1.25606393       0.00000000
Si       0.14695209       2.31609591       1.74651029       0.00000000
Si       2.70882242       1.26682443      -0.91803967       0.00000000
Si      -0.32913945       3.36618189      -0.27162971       0.00000000
Si       2.48620328      -2.49492639      -0.87206892       0.00000000
Si      -3.03222060      -1.98376199      -0.52111645       0.00000000
Si      -3.20616522       1.37174832       1.29426401       0.00000000
