10
Lattice="16.28999089631971 0.0 0.0 0.0 16.28999089631971 0.0 0.0 0.0 34.383488856416385" Properties=species:S:1:pos:R:3:initial_magmoms:R:1 pbc="T T T"
Si      -1.35518139      -1.35705474      -1.35670446       0.00000000
Si      -1.35674523       1.35703845       1.35742652       0.00000000
Si       1.35770634      -1.35716877       1.35739213       0.00000000
Si       1.35873261       1.35721764      -1.35938638       0.00000000
Si      -2.71399545       0.00166158       2.71471550       0.00000000
Si      -0.00702099      -2.71042794      -2.71842892       0.00000000
Si       0.00118917       2.71476108       2.71430289       0.00000000
Si       0.00219915      -2.71513575       2.71430289       0.00000000
Si      -2.71414206       2.71531494       0.00003438       0.00000000
Si      -2.70953199      -0.00542457      -2.71994179       0.00000000
