10
Lattice="16.28999089631971 0.0 0.0 0.0 16.28999089631971 0.0 0.0 0.0 34.383488856416385" Properties=species:S:1:pos:R:3:initial_magmoms:R:1 pbc="T T T"
Si       1.35337320      -1.35894438       1.35680761       0.00000000
Si       1.35550719       1.35796698      -1.35691076       0.00000000
Si      -1.35936792      -1.35741312      -1.35697953       0.00000000
Si      -1.35830907       1.35654975       1.36038350       0.00000000
Si      -0.00553860      -2.68806177       2.71244618       0.00000000
Si       2.71301805      -2.71414206       0.00017192       0.00000000
Si       2.71401174       0.00039096      -2.71419974       0.00000000
Si      -0.00219915       2.71513575      -2.71430289       0.00000000
Si      -2.71608057      -2.71367779       0.00137534       0.00000000
Si      -0.00270414      -2.71524978      -2.71481865       0.00000000
