10
Lattice="16.28999089631971 0.0 0.0 0.0 16.28999089631971 0.0 0.0 0.0 34.383488856416385" Properties=species:S:1:pos:R:3:initial_magmoms:R:1 pbc="T T T"
Si      -1.28104560      -1.43277066       1.39095044       0.00000000
Si      -1.40279706       1.19926980      -1.56582496       0.00000000
Si       1.29818268      -1.48778199      -1.55898264       0.00000000
Si       1.47501063       1.52805087       1.44118474       0.00000000
Si      -2.72689713       2.61312777      -0.19798024       0.00000000
Si      -2.76265368       0.03021795       2.60554786       0.00000000
Si       2.77322216       2.69276958      -0.11171202       0.00000000
Si      -2.72784195      -2.78428680      -0.16311536       0.00000000
Si      -0.05209542       2.56002237      -2.94357213       0.00000000
Si       2.88915923      -2.66033619      -0.23593963       0.00000000
