10
Lattice="16.28999089631971 0.0 0.0 0.0 16.28999089631971 0.0 0.0 0.0 34.383488856416385" Properties=species:S:1:pos:R:3:initial_magmoms:R:1 pbc="T T T"
Si       2.02108468      -1.10211624       0.53562629       0.00000000
Si      -0.96034437      -1.46175057      -1.60938886       0.00000000
Si       0.84664017       1.91883168      -1.22295262       0.00000000
Si      -1.48939470       0.09044208       2.02714849       0.00000000
Si       0.06053364       1.23022080      -3.37625419       0.00000000
Si      -1.85541471      -0.06120153      -3.29696582       0.00000000
Si       3.00301982       0.12948921       2.37875424       0.00000000
Si       1.53219474      -3.39232245       1.20789264       0.00000000
Si       0.46732752      -3.21112878      -2.26717976       0.00000000
Si       3.57259967      -1.19283525      -1.24495806       0.00000000
