10
Lattice="16.28999089631971 0.0 0.0 0.0 16.28999089631971 0.0 0.0 0.0 34.383488856416385" Properties=species:S:1:pos:R:3:initial_magmoms:R:1 pbc="T T T"
Si      -2.30633820       0.18430506      -0.65390556       0.00000000
Si       0.57655197       2.01080502       1.24000684       0.00000000
Si       1.48939470      -0.09044208      -2.02714849       0.00000000
Si       0.49746402      -2.09368854       1.68915860       0.00000000
Si       2.74002687       0.93006126       1.83711084       0.00000000
Si       1.62919548      -0.68017266       3.24840741       0.00000000
Si      -2.81896821      -1.92050955      -1.63166938       0.00000000
Si      -2.46057192       1.75969467      -2.53323934       0.00000000
Si       0.52905033      -1.55219265      -3.63653735       0.00000000
Si       3.51047938      -1.19255832      -1.49152220       0.00000000
