10
Lattice="16.28999089631971 0.0 0.0 0.0 16.28999089631971 0.0 0.0 0.0 34.383488856416385" Properties=species:S:1:pos:R:3:initial_magmoms:R:1 pbc="T T T"
Si      -0.98505630       0.45644580       2.11460435       0.00000000
Si      -0.57655197      -2.01080502      -1.24000684       0.00000000
Si       2.16347490      -1.08074376       0.59710400       0.00000000
Si      -1.00071099       2.11952448      -1.13885055       0.00000000
Si       0.65591685       2.31866973       2.24357345       0.00000000
Si       1.05264351      -2.69097768       2.00840057       0.00000000
Si      -0.33368436      -1.38064266       3.44290116       0.00000000
Si      -2.88289017      -1.82649996      -1.89391239       0.00000000
Si       0.91284273      -2.10124710      -3.26715532       0.00000000
Si       0.60414723       3.85981776      -0.83771979       0.00000000
