10
Lattice="16.28999089631971 0.0 0.0 0.0 16.28999089631971 0.0 0.0 0.0 34.383488856416385" Properties=species:S:1:pos:R:3:initial_magmoms:R:1 pbc="T T T"
Si       0.99559593      -1.72559970      -1.21865124       0.00000000
Si       1.35474156       1.35988920       1.35151599       0.00000000
Si      -1.28567196       1.31667183      -1.46415636       0.00000000
Si      -1.37344248      -1.34830701       1.35278818       0.00000000
Si       2.52428211      -0.61721181      -2.65401073       0.00000000
Si       2.70269837      -2.70617625       0.01435511       0.00000000
Si      -2.69689095      -2.71355562      -0.03814163       0.00000000
Si       2.72178207       2.69091252      -0.00274380       0.00000000
Si       2.70847983       0.00086337       2.70784223       0.00000000
Si      -0.00501732      -2.71252935       2.70619182       0.00000000
