10
Lattice="16.28999089631971 0.0 0.0 0.0 16.28999089631971 0.0 0.0 0.0 34.383488856416385" Properties=species:S:1:pos:R:3:initial_magmoms:R:1 pbc="T T T"
Si       1.35657273       1.35591444      -1.35777035       0.00000000
Si       1.35677444      -1.35742941       1.35732336       0.00000000
Si      -1.35759231       1.35729909       1.35728898       0.00000000
Si      -1.35692442      -1.35747828      -1.35942076       0.00000000
Si       0.00042354      -2.71331127       2.71382153       0.00000000
Si      -2.71446786       0.00006516       2.71426851       0.00000000
Si       2.71429586       2.71469592       0.00024068       0.00000000
Si       0.00283446       2.71494027      -2.71409659       0.00000000
Si       2.71522602       0.00125433       2.71450920       0.00000000
Si       2.71692506       0.00245979      -2.71285879       0.00000000
