10
Lattice="16.28999089631971 0.0 0.0 0.0 16.28999089631971 0.0 0.0 0.0 34.383488856416385" Properties=species:S:1:pos:R:3:initial_magmoms:R:1 pbc="T T T"
Si       0.98049577      -1.25260326       1.73134717       0.00000000
Si       1.44849770       1.74454497      -0.73611652       0.00000000
Si      -1.71792711       1.05156837       1.37864114       0.00000000
Si      -0.28533564      -1.24683660      -2.09701577       0.00000000
Si      -2.62459593       0.99854442      -1.92183180       0.00000000
Si      -0.76442454       0.65057373      -3.40991565       0.00000000
Si       3.13601138      -0.57992400      -1.66619042       0.00000000
Si      -0.19033236      -3.32653203       1.38011963       0.00000000
Si      -2.67848325       2.58450624      -0.12952267       0.00000000
Si      -0.50191119       2.05276806       3.12497951       0.00000000
