10
Lattice="16.28999089631971 0.0 0.0 0.0 16.28999089631971 0.0 0.0 0.0 34.383488856416385" Properties=species:S:1:pos:R:3:initial_magmoms:R:1 pbc="T T T"
Si      -0.56456253       2.13281712       0.37876872       0.00000000
Si      -2.26909437      -0.01672983      -0.81347942       0.00000000
Si       0.32879736      -0.78508026       2.26229730       0.00000000
Si       1.22310207      -1.41560100      -1.92416988       0.00000000
Si       0.11473047       3.01936779      -1.88700131       0.00000000
Si       2.57759928       2.49005682       0.48319144       0.00000000
Si      -2.95916321      -2.18440755      -0.24003127       0.00000000
Si       2.53159632      -2.79857313      -0.50031443       0.00000000
Si      -0.85294440      -2.71314837       2.77866882       0.00000000
Si      -0.51575769       0.59000751       4.04205644       0.00000000
