10
Lattice="16.28999089631971 0.0 0.0 0.0 16.28999089631971 0.0 0.0 0.0 34.383488856416385" Properties=species:S:1:pos:R:3:initial_magmoms:R:1 pbc="T T T"
Si       1.35575154       1.35485559      -1.35818295       0.00000000
Si      -1.35793440       1.35721517       1.35725460       0.00000000
Si       1.35750041      -1.35795069       1.35732336       0.00000000
Si      -1.35860229      -1.35830907      -1.35835487       0.00000000
Si      -2.71339272       0.00047241       2.71433728       0.00000000
Si       0.00004887      -2.71427238       2.71430289       0.00000000
Si       2.71185887       0.00726534      -2.71732864       0.00000000
Si       2.71498167       2.71442292      -0.00068767       0.00000000
Si       0.00314397      -2.71549413      -2.71416536       0.00000000
Si      -0.00013032       2.71558277       2.71437166       0.00000000
