10
Lattice="16.28999089631971 0.0 0.0 0.0 16.28999089631971 0.0 0.0 0.0 34.383488856416385" Properties=species:S:1:pos:R:3:initial_magmoms:R:1 pbc="T T T"
Si      -0.69006883      -2.16767772       0.57344815       0.00000000
Si      -1.71681517       1.48263435       0.76142279       0.00000000
Si       2.26909437       0.01672983       0.81347942       0.00000000
Si      -0.12037984      -0.29932875      -2.54145700       0.00000000
Si       1.70453184       2.14954695       1.19224814       0.00000000
Si      -3.46530232       0.13346397      -0.18690875       0.00000000
Si       1.38772392       1.51674561      -3.02818994       0.00000000
Si      -3.01338514      -2.17215747       0.09280109       0.00000000
Si      -0.76260658      -2.31168132       2.89859850       0.00000000
Si       0.90511638      -3.79767141      -0.12292104       0.00000000
