10
Lattice="16.28999089631971 0.0 0.0 0.0 16.28999089631971 0.0 0.0 0.0 34.383488856416385" Properties=species:S:1:pos:R:3:initial_magmoms:R:1 pbc="T T T"
Si      -1.54254897      -1.72882512       0.00952423       0.00000000
Si      -0.17409123       1.62588861       1.64342854       0.00000000
Si      -0.37126539       1.17224469      -1.98609458       0.00000000
Si       2.28076520      -0.49972833       0.39396624       0.00000000
Si       1.26653121       0.13833468      -3.30260472       0.00000000
Si       1.46549727       3.18077793       0.78703850       0.00000000
Si      -0.58199283      -3.26176299       1.51768805       0.00000000
Si       0.45726030       3.35376306      -1.37551224       0.00000000
Si       2.58443198      -2.56878639      -0.59706962       0.00000000
Si       2.51399402      -0.91820214       2.69783319       0.00000000
