10
Lattice="16.28999089631971 0.0 0.0 0.0 16.28999089631971 0.0 0.0 0.0 34.383488856416385" Properties=species:S:1:pos:R:3:initial_magmoms:R:1 pbc="T T T"
Si       2.17875655      -0.38473722       0.69354974       0.00000000
Si       0.07253774       0.14400360      -2.32515035       0.00000000
Si      -0.85920532       1.71462024       1.33995969       0.00000000
Si      -0.53006587      -1.65156165       1.61158941       0.00000000
Si       1.47315520      -0.94143168       2.86765334       0.00000000
Si      -0.38311378       0.66453426       3.35809970       0.00000000
Si      -3.13060147       1.07572644       1.04577440       0.00000000
Si      -2.25077857       0.13952385      -2.80579741       0.00000000
Si       3.36049831       1.54333089       0.17717822       0.00000000
Si      -3.61268773      -0.28181700      -0.90755270       0.00000000
