10
Lattice="16.28999089631971 0.0 0.0 0.0 16.28999089631971 0.0 0.0 0.0 34.383488856416385" Properties=species:S:1:pos:R:3:initial_magmoms:R:1 pbc="T T T"
Si       1.79414802       1.33032285       0.78153714       0.00000000
Si      -2.20432045       0.87013035      -0.26575013       0.00000000
Si      -0.71149833      -1.58462604       1.64566346       0.00000000
Si       0.84455505      -1.37508777      -1.77975914       0.00000000
Si       3.47263704      -0.29941020       0.33472345       0.00000000
Si      -0.33718671      -3.30315588      -1.26338762       0.00000000
Si      -3.37514858      -1.20379842      -0.61697767       0.00000000
Si       1.58594553       3.37121550      -0.46634352       0.00000000
Si       2.95241589      -2.21931702      -1.07462216       0.00000000
Si      -2.81320874       2.05019424       1.76346136       0.00000000
