10
Lattice="16.28999089631971 0.0 0.0 0.0 16.28999089631971 0.0 0.0 0.0 34.383488856416385" Properties=species:S:1:pos:R:3:initial_magmoms:R:1 pbc="T T T"
Si      -1.18174176      -1.92806811       0.51637152       0.00000000
Si       2.10786084      -0.84422925       0.70513698       0.00000000
Si      -0.84455505       1.37508777       1.77975914       0.00000000
Si      -0.32879736       0.78508026      -2.26229730       0.00000000
Si       2.62808199       1.07567757       2.11448260       0.00000000
Si      -0.89335989       2.91789738      -1.88352857       0.00000000
Si       3.43148850      -0.69377481      -1.20156607       0.00000000
Si      -3.36049831      -1.54333089      -0.17717822       0.00000000
Si      -1.55605338      -0.20953827       3.42542261       0.00000000
Si       0.94959297       2.70541062       2.56129628       0.00000000
