10
Lattice="16.28999089631971 0.0 0.0 0.0 16.28999089631971 0.0 0.0 0.0 34.383488856416385" Properties=species:S:1:pos:R:3:initial_magmoms:R:1 pbc="T T T"
Si      -0.57189303       0.05369184      -2.25308252       0.00000000
Si       2.24306784      -0.53673921      -0.33544550       0.00000000
Si      -0.86609043       1.97343576       1.00874336       0.00000000
Si      -0.41990733      -2.00810088       1.33841244       0.00000000
Si       2.66266566      -0.55283373       1.96350461       0.00000000
Si      -3.14586683       1.10356605       1.36041788       0.00000000
Si      -2.75945174      -0.61556652      -2.49758364       0.00000000
Si       2.24661906      -2.86862013      -1.09635254       0.00000000
Si      -0.90318276      -2.22153246      -2.98803000       0.00000000
Si       0.54911961       2.61871524       2.85255898       0.00000000
