10
Lattice="16.28999089631971 0.0 0.0 0.0 16.28999089631971 0.0 0.0 0.0 34.383488856416385" Properties=species:S:1:pos:R:3:initial_magmoms:R:1 pbc="T T T"
Si       1.35561959       1.35700913      -1.35715145       0.00000000
Si       1.35801422      -1.35729823       1.35759843       0.00000000
Si      -1.35743827       1.35792137       1.35780473       0.00000000
Si      -1.35923013      -1.35956733      -1.35749528       0.00000000
Si      -0.00312279      -2.70715758      -2.71664097       0.00000000
Si      -0.00042028       2.71349372      -2.71468111       0.00000000
Si       0.00240929      -2.71365729       2.71478426       0.00000000
Si      -2.71498167      -2.71442292       0.00068767       0.00000000
Si       2.71503638      -2.71460211       0.00065329       0.00000000
Si      -2.71411830       2.71569287       0.00068767       0.00000000
