10
Lattice="16.28999089631971 0.0 0.0 0.0 16.28999089631971 0.0 0.0 0.0 34.383488856416385" Properties=species:S:1:pos:R:3:initial_magmoms:R:1 pbc="T T T"
Si       1.34554748       1.34255664      -1.36855646       0.00000000
Si      -1.36613379      -1.35358497      -1.33839868       0.00000000
Si      -1.36035233       1.35345465       1.35508844       0.00000000
Si       1.35423005      -1.36039419       1.35667008       0.00000000
Si      -0.25194440       2.42432667      -2.75881922       0.00000000
Si      -0.06973097      -2.65823478      -2.74879987       0.00000000
Si       2.71239251      -0.00216657       2.71282440       0.00000000
Si      -0.00262921       2.71223613       2.71309947       0.00000000
Si      -2.71409060       2.71248048      -0.00123781       0.00000000
Si       2.71496633       2.71182888      -0.00268191       0.00000000
