10
Lattice="16.28999089631971 0.0 0.0 0.0 16.28999089631971 0.0 0.0 0.0 34.383488856416385" Properties=species:S:1:pos:R:3:initial_magmoms:R:1 pbc="T T T"
Si      -1.35247562       1.35826020      -1.36014281       0.00000000
Si       1.34529336       1.37912769       1.35048105       0.00000000
Si       1.36314720      -1.35744570      -1.35976459       0.00000000
Si      -1.34756419      -1.35435060       1.38173566       0.00000000
Si      -2.71222202       2.71140534       0.00113466       0.00000000
Si       2.82247056       0.12898422       2.59475144       0.00000000
Si      -2.71092720      -0.00042354      -2.71732864       0.00000000
Si      -2.71478456      -2.71432125      -0.00079082       0.00000000
Si       2.71363707       2.71700910       0.00048137       0.00000000
Si       0.00472410       2.71441899      -2.71684727       0.00000000
