10
Lattice="16.28999089631971 0.0 0.0 0.0 16.28999089631971 0.0 0.0 0.0 34.383488856416385" Properties=species:S:1:pos:R:3:initial_magmoms:R:1 pbc="T T T"
Si      -1.88725352      -0.84478311       1.19211061       0.00000000
Si       1.04915745      -1.37005416      -1.65800714       0.00000000
Si       1.69104861      -0.19411164       1.93101220       0.00000000
Si      -1.61490426       1.31908275      -1.64397867       0.00000000
Si      -0.96645312       0.76216023       3.38660363       0.00000000
Si      -0.69672330      -2.81904966       2.13951379       0.00000000
Si       2.52633465      -2.62019763      -0.41373675       0.00000000
Si       2.41750116      -0.03217275      -3.00800682       0.00000000
Si      -2.89420634      -2.61778671      -0.17814096       0.00000000
Si       2.62076778       2.90818854      -0.22387102       0.00000000
