10
Lattice="16.28999089631971 0.0 0.0 0.0 16.28999089631971 0.0 0.0 0.0 34.383488856416385" Properties=species:S:1:pos:R:3:initial_magmoms:R:1 pbc="T T T"
Si      -0.62980398      -1.89718227      -1.03401524       0.00000000
Si      -2.31731766       0.42728670      -0.10394134       0.00000000
Si       1.22997645       1.73029122      -1.07242162       0.00000000
Si       1.00494639      -0.06877638       2.16292896       0.00000000
Si       2.51235783      -1.53994257      -0.92959252       0.00000000
Si       3.23296227       0.66629358      -0.43182248       0.00000000
Si       0.04948902      -1.01063160      -3.29978527       0.00000000
Si       2.98885662       1.22124501       1.84955767       0.00000000
Si      -2.62098444       2.49634476       0.88709451       0.00000000
Si      -2.88185901       0.98544726      -2.33464020       0.00000000
