10
Lattice="16.28999089631971 0.0 0.0 0.0 16.28999089631971 0.0 0.0 0.0 34.383488856416385" Properties=species:S:1:pos:R:3:initial_magmoms:R:1 pbc="T T T"
Si       1.33989648       1.34268044      -1.36323733       0.00000000
Si      -1.14868772       1.55368481       1.34707708       0.00000000
Si      -1.37729899      -1.37060394      -1.35828610       0.00000000
Si       1.30677891      -1.34095647       1.48454234       0.00000000
Si      -2.18370286      -0.24879391       2.43294265       0.00000000
Si      -0.69538589      -2.14521122       2.61452195       0.00000000
Si       2.70188709       2.69235581       0.02310572       0.00000000
Si       2.68217619      -2.72609633       0.02386215       0.00000000
Si       2.69683719      -0.00882429      -2.71866960       0.00000000
Si      -0.01859178       2.70252077      -2.71894467       0.00000000
