10
Lattice="16.28999089631971 0.0 0.0 0.0 16.28999089631971 0.0 0.0 0.0 34.383488856416385" Properties=species:S:1:pos:R:3:initial_magmoms:R:1 pbc="T T T"
Si       0.56456253      -2.13281712      -0.37876872       0.00000000
Si       0.62980398       1.89718227       1.03401524       0.00000000
Si       0.67929300       0.88655067      -2.26577003       0.00000000
Si      -1.70453184      -2.14954695      -1.19224814       0.00000000
Si      -1.68751368       2.32446897       0.93007389       0.00000000
Si       3.14216181       0.35723970       0.10442271       0.00000000
Si      -3.42134702      -0.66691260      -0.43082536       0.00000000
Si       0.89335989      -2.91789738       1.88352857       0.00000000
Si      -3.13601138       0.57992400       1.66619042       0.00000000
Si      -2.25205503       2.88262953      -1.30062496       0.00000000
