10
Lattice="16.28999089631971 0.0 0.0 0.0 16.28999089631971 0.0 0.0 0.0 34.383488856416385" Properties=species:S:1:pos:R:3:initial_magmoms:R:1 pbc="T T T"
Si       1.03338873      -1.69863975      -1.25751148       0.00000000
Si      -1.33767941      -1.35610992       1.38596827       0.00000000
Si       1.37984445       1.35315884       1.38431786       0.00000000
Si      -1.30322932       1.52692753      -1.65880828       0.00000000
Si       2.34093816      -0.32325876      -2.58177991       0.00000000
Si      -2.67927776       2.71212929       0.00258564       0.00000000
Si      -2.67935381      -2.74784607       0.03487175       0.00000000
Si      -2.69378675      -0.00851967       2.74511396       0.00000000
Si       2.73466746       2.70742148       0.01474021       0.00000000
Si       2.73132801      -2.71379997       0.02789190       0.00000000
