10
Lattice="16.28999089631971 0.0 0.0 0.0 16.28999089631971 0.0 0.0 0.0 34.383488856416385" Properties=species:S:1:pos:R:3:initial_magmoms:R:1 pbc="T T T"
Si       1.35923760      -1.35790182      -1.35601679       0.00000000
Si       1.35705474       1.35806472       1.35955829       0.00000000
Si      -1.35835794      -1.35749457       1.35976459       0.00000000
Si      -1.36110443       1.36550925      -1.35773597       0.00000000
Si      -2.70277883      -0.02622690      -2.70883248       0.00000000
Si       2.70790299       0.00781920      -2.71581233       0.00000000
Si       2.71342530      -2.71637379       0.00288821       0.00000000
Si      -2.71721177       2.71309950       0.00140972       0.00000000
Si       2.71432125       0.00032580       2.71664097       0.00000000
Si       2.71637379       2.71464129       0.00244123       0.00000000
