10
Lattice="16.28999089631971 0.0 0.0 0.0 16.28999089631971 0.0 0.0 0.0 34.383488856416385" Properties=species:S:1:pos:R:3:initial_magmoms:R:1 pbc="T T T"
Si      -1.76540010      -1.50601050      -0.41143306       0.00000000
Si      -1.10519179       2.07273701      -0.25632905       0.00000000
Si       0.69343598      -0.56567025       2.25071005       0.00000000
Si       2.09263295       0.11474676      -1.23079205       0.00000000
Si      -2.57467101       1.70941788       1.51565942       0.00000000
Si       2.55986273      -2.23549299      -1.00850268       0.00000000
Si      -3.40319670      -0.47210049       0.90507708       0.00000000
Si       3.38273579       0.98365536       0.62918381       0.00000000
Si      -2.29005213      -1.17835344      -2.66747256       0.00000000
Si      -1.01204069      -3.65497101       0.06340319       0.00000000
