10
Lattice="16.28999089631971 0.0 0.0 0.0 16.28999089631971 0.0 0.0 0.0 34.33025523377368" Properties=species:S:1:pos:R:3:initial_magmoms:R:1 pbc="T T T"
Si      -0.16477335      -2.06381268      -1.15408084       0.00000000
Si       1.40602248       1.68937630      -0.89251847       0.00000000
Si      -2.19314306       1.00502427      -0.04226057       0.00000000
Si      -0.27456795      -0.42725412       2.62166574       0.00000000
Si      -1.99335191      -2.69990460       0.16423603       0.00000000
Si      -3.40479638      -0.97767693      -0.36956540       0.00000000
Si       0.66086901       3.57852923       0.31628482       0.00000000
Si      -2.08929838      -1.96659396       2.55712482       0.00000000
Si       3.60077418       1.43836857      -0.10347145       0.00000000
Si       1.49682294      -3.65417280      -0.77970919       0.00000000
