10
Lattice="16.28999089631971 0.0 0.0 0.0 16.28999089631971 0.0 0.0 0.0 34.33025523377368" Properties=species:S:1:pos:R:3:initial_magmoms:R:1 pbc="T T T"
Si      -1.09055034      -1.17252162      -1.68280139       0.00000000
Si       1.85907996      -1.38808719       0.55196215       0.00000000
Si      -1.52467884       0.06704964       1.89369227       0.00000000
Si       1.29930669       1.79116695      -1.04885854       0.00000000
Si       1.64669094       2.84842053       1.01329238       0.00000000
Si      -3.00726432       0.23872995      -2.14437193       0.00000000
Si       1.73495016       1.41537294       2.96836718       0.00000000
Si       3.02423850      -0.44621568       2.32659703       0.00000000
Si      -0.47244258       1.21179681       3.66667929       0.00000000
Si       3.41602929      -1.39437513      -1.23935724       0.00000000
