10
Lattice="16.28999089631971 0.0 0.0 0.0 16.28999089631971 0.0 0.0 0.0 34.33025523377368" Properties=species:S:1:pos:R:3:initial_magmoms:R:1 pbc="T T T"
Si       0.99295695      -2.08114524       0.27052256       0.00000000
Si       0.97326234       1.65791475       1.35680111       0.00000000
Si       0.98370423       0.66179754      -2.05470125       0.00000000
Si      -2.26380501      -0.85043574       0.41587694       0.00000000
Si      -2.16630936      -2.08915992      -1.83079920       0.00000000
Si      -1.74682557      -0.42091731       3.04931796       0.00000000
Si      -0.05927931      -3.22589241      -1.50246446       0.00000000
Si      -0.51409611       1.60308261       3.21571680       0.00000000
Si       3.20034969      -1.87756911      -0.42778955       0.00000000
Si       1.95779736       2.79254583      -1.66958424       0.00000000
