10
Lattice="16.28999089631971 0.0 0.0 0.0 16.28999089631971 0.0 0.0 0.0 34.33025523377368" Properties=species:S:1:pos:R:3:initial_magmoms:R:1 pbc="T T T"
Si       1.52881650       0.33881571       1.74404660       0.00000000
Si       1.20142008      -0.92849742      -1.78596387       0.00000000
Si      -1.10636793       1.81721466      -1.04789730       0.00000000
Si      -1.62043146      -1.50819336       0.91297932       0.00000000
Si      -2.87137314       1.77613128       0.54070182       0.00000000
Si      -0.49948398      -2.38254282      -2.41558110       0.00000000
Si      -0.87527799      -3.39734629      -0.29582397       0.00000000
Si       2.92115538       2.00117763       0.92283211       0.00000000
Si      -3.69122603      -0.39527685       0.65114231       0.00000000
Si       2.78010027      -2.40489270      -0.99324350       0.00000000
