10
Lattice="16.28999089631971 0.0 0.0 0.0 16.28999089631971 0.0 0.0 0.0 34.33025523377368" Properties=species:S:1:pos:R:3:initial_magmoms:R:1 pbc="T T T"
Si       1.80752211       0.31679163       1.46597138       0.00000000
Si      -1.23272946      -2.02399992      -0.16639884       0.00000000
Si       1.48735845       0.05483214      -1.85891570       0.00000000
Si      -1.75549185       1.65016071      -0.11064647       0.00000000
Si       0.57594924       1.14222222       3.28571623       0.00000000
Si       0.51409611      -1.60308261      -3.21571680       0.00000000
Si      -2.48722236       1.62194643      -2.36748438       0.00000000
Si       2.79479385      -1.84003695       1.80433056       0.00000000
Si      -0.91083906       3.70788093       0.69848376       0.00000000
Si      -2.99773467      -2.06508330       1.42220028       0.00000000
