10
Lattice="16.28999089631971 0.0 0.0 0.0 16.28999089631971 0.0 0.0 0.0 34.33025523377368" Properties=species:S:1:pos:R:3:initial_magmoms:R:1 pbc="T T T"
Si       1.34317566       1.34830701       1.38964488       0.00000000
Si      -1.36679616      -1.37021706       1.38782537       0.00000000
Si      -1.22373738       1.54785951      -1.34028138       0.00000000
Si       1.69813476      -1.11141783      -1.48819336       0.00000000
Si      -2.52341874       0.28461888      -2.75297015       0.00000000
Si       2.70425403       2.70532917       0.03724835       0.00000000
Si       2.71114470      -2.69943219       0.02378745       0.00000000
Si       2.69969283      -0.00148239       2.74867745       0.00000000
Si      -2.73028545      -2.72526813       0.02926999       0.00000000
Si      -0.01369989       2.71248048       2.74843714       0.00000000
