10
Lattice="16.28999089631971 0.0 0.0 0.0 16.28999089631971 0.0 0.0 0.0 34.33025523377368" Properties=species:S:1:pos:R:3:initial_magmoms:R:1 pbc="T T T"
Si       0.73788813      -1.38821751       1.71802425       0.00000000
Si      -1.71159030       1.48079358       0.62144663       0.00000000
Si       1.97156241       1.40006034      -0.15912082       0.00000000
Si      -1.20044268      -1.30460094      -2.04910542       0.00000000
Si      -0.41611176       0.97546149      -2.67367610       0.00000000
Si      -1.78303824       2.48660334      -1.54149798       0.00000000
Si       1.88222805       1.38219021      -2.51675242       0.00000000
Si      -1.06968285      -3.40900830      -0.86268547       0.00000000
Si       2.56723884      -2.58826923       0.77401037       0.00000000
Si       0.87138468       0.07467336       3.65280986       0.00000000
