10
Lattice="16.28999089631971 0.0 0.0 0.0 16.28999089631971 0.0 0.0 0.0 34.33025523377368" Properties=species:S:1:pos:R:3:initial_magmoms:R:1 pbc="T T T"
Si      -0.74901420       2.21301279       0.61900918       0.00000000
Si      -0.91085535      -1.31124726       1.85829775       0.00000000
Si       2.40272613       0.54796302      -0.33022291       0.00000000
Si      -0.42143859      -1.00216080      -2.25906938       0.00000000
Si       1.70098551       2.11509360      -2.16967334       0.00000000
Si       1.23432588      -2.75395482       2.01467215       0.00000000
Si       0.31809483       0.79659729      -3.64412430       0.00000000
Si       0.47601009       3.62884562      -0.81939499       0.00000000
Si       1.41688791      -2.81585682      -2.04120946       0.00000000
Si      -3.08097657       2.26158957      -0.07168161       0.00000000
