10
Lattice="16.28999089631971 0.0 0.0 0.0 16.28999089631971 0.0 0.0 0.0 34.33025523377368" Properties=species:S:1:pos:R:3:initial_magmoms:R:1 pbc="T T T"
Si      -1.29010284       1.46698455      -1.28868984       0.00000000
Si       1.96017570       1.38146205       0.05637031       0.00000000
Si       1.29885057      -1.56011189      -1.59924150       0.00000000
Si      -1.40885694      -0.22814829       2.22508241       0.00000000
Si       0.95452884      -3.19789220       1.11157996       0.00000000
Si      -2.34030285      -0.27633998      -2.86705854       0.00000000
Si       3.70079478      -0.35470076       0.09355000       0.00000000
Si      -2.30133717       2.89332066       0.44759812       0.00000000
Si       0.24011460       2.44796835      -2.83300291       0.00000000
Si       2.83535595      -2.56888643      -0.19262717       0.00000000
