10
Lattice="16.28999089631971 0.0 0.0 0.0 16.28999089631971 0.0 0.0 0.0 34.33025523377368" Properties=species:S:1:pos:R:3:initial_magmoms:R:1 pbc="T T T"
Si      -2.00119392      -1.23075837       0.27838420       0.00000000
Si       1.67493780      -1.44971226      -0.83092996       0.00000000
Si      -0.17457993       0.50243247       2.31029015       0.00000000
Si       0.32026140       2.10854502      -1.07803928       0.00000000
Si      -3.29048226       0.63083025       0.92015435       0.00000000
Si       2.02318542       3.16001565       0.15325035       0.00000000
Si      -1.46642580      -2.86748472       1.94498170       0.00000000
Si       0.76375665      -2.31482040      -2.91553289       0.00000000
Si      -2.20260348       1.73061702       2.66808027       0.00000000
Si       3.66515226      -0.20787669      -1.26101964       0.00000000
