10
Lattice="16.28999089631971 0.0 0.0 0.0 16.28999089631971 0.0 0.0 0.0 34.33025523377368" Properties=species:S:1:pos:R:3:initial_magmoms:R:1 pbc="T T T"
Si      -0.88795161      -1.66617378      -1.51231725       0.00000000
Si       1.48540365       0.31297977       1.88407979       0.00000000
Si       1.68106284       0.91313595      -1.49027721       0.00000000
Si      -1.46021931      -1.28666565       1.57521031       0.00000000
Si      -0.71027658       2.58740586       1.89149513       0.00000000
Si       0.29264985       2.19949209      -2.87615606       0.00000000
Si      -2.15959788      -3.03262785       0.05729723       0.00000000
Si      -2.59068015       2.69226459       0.14645295       0.00000000
Si      -2.43129879      -0.50463162      -2.85442500       0.00000000
Si       0.01702305       1.13181291       3.61703771       0.00000000
