10
Lattice="16.28999089631971 0.0 0.0 0.0 16.28999089631971 0.0 0.0 0.0 34.33025523377368" Properties=species:S:1:pos:R:3:initial_magmoms:R:1 pbc="T T T"
Si       1.20039381       2.02002516       0.07803271       0.00000000
Si      -1.46838060       0.81883314       1.73295792       0.00000000
Si      -1.48540365      -0.31297977      -1.88407979       0.00000000
Si       1.65669300      -1.75783761      -0.25569188       0.00000000
Si      -2.19568023       2.27442609       0.00741534       0.00000000
Si       2.06889516       1.51156539      -2.12147364       0.00000000
Si      -2.94562296      -1.59964542      -0.30886948       0.00000000
Si       0.19565919       0.60015618      -3.37435700       0.00000000
Si       1.19687517      -2.84858343       1.72550825       0.00000000
Si      -0.31086207       3.81886470       0.01671884       0.00000000
