10
Lattice="16.28999089631971 0.0 0.0 0.0 16.28999089631971 0.0 0.0 0.0 34.33025523377368" Properties=species:S:1:pos:R:3:initial_magmoms:R:1 pbc="T T T"
Si      -1.54334718       1.16154216      -1.34210775       0.00000000
Si       1.19037546      -1.56183633      -1.35903257       0.00000000
Si       0.88795161       1.66617378       1.51231725       0.00000000
Si      -1.27164627      -1.36645407       1.56961448       0.00000000
Si      -0.57226770       0.37950813       3.08752756       0.00000000
Si       2.56901445       2.57930973       0.02204004       0.00000000
Si      -0.17783793       2.50064532      -2.72482821       0.00000000
Si       2.54093049      -0.21647781      -2.72874186       0.00000000
Si       2.49155550      -2.87417502       0.13811069       0.00000000
Si      -2.69866656      -2.75825538       0.08352556       0.00000000
