10
Lattice="16.28999089631971 0.0 0.0 0.0 16.28999089631971 0.0 0.0 0.0 34.33025523377368" Properties=species:S:1:pos:R:3:initial_magmoms:R:1 pbc="T T T"
Si      -0.34738425      -1.05725358      -2.06215092       0.00000000
Si       1.84124241       1.52728524      -0.13114165       0.00000000
Si      -2.12838624       1.10631906       0.32816309       0.00000000
Si       0.08825922      -1.43304759       1.95507480       0.00000000
Si      -1.64669094      -2.84842053      -1.01329238       0.00000000
Si       1.01330316       2.88230373       1.61946204       0.00000000
Si      -1.15429311       3.23706735       0.71328011       0.00000000
Si      -0.87394221       0.83841372      -3.48139880       0.00000000
Si       3.69900288       0.04466718      -0.04311882       0.00000000
Si      -2.11913352      -1.63662372       2.65338691       0.00000000
