10
Lattice="16.28999089631971 0.0 0.0 0.0 16.28999089631971 0.0 0.0 0.0 34.33025523377368" Properties=species:S:1:pos:R:3:initial_magmoms:R:1 pbc="T T T"
Si      -1.26705249       1.45543005      -1.28824698       0.00000000
Si       1.35140211       1.36246302       1.35545193       0.00000000
Si      -1.36107837      -1.35702216       1.35239653       0.00000000
Si       1.53363834      -1.06052787      -1.45848051       0.00000000
Si       0.44768178       2.43519210      -2.43145336       0.00000000
Si       2.20995027       0.83232126      -2.76347521       0.00000000
Si       0.22654503      -2.29060206      -2.99750469       0.00000000
Si      -2.50367526       0.21260079      -2.82691756       0.00000000
Si       2.70495450      -2.68262091      -0.02100326       0.00000000
Si      -2.70425403      -2.70532917      -0.03724835       0.00000000
