10
Lattice="16.28999089631971 0.0 0.0 0.0 16.28999089631971 0.0 0.0 0.0 34.33025523377368" Properties=species:S:1:pos:R:3:initial_magmoms:R:1 pbc="T T T"
Si      -1.35550719      -1.35609363       1.35783101       0.00000000
Si      -1.35711990       1.35742941      -1.35693843       0.00000000
Si       1.35819504      -1.35790182      -1.35693843       0.00000000
Si       1.35896067       1.35889551       1.35680111       0.00000000
Si      -2.71194291       0.00118917      -2.71435748       0.00000000
Si       0.00144981      -2.71277370      -2.71411717       0.00000000
Si      -2.71435383       2.71477737       0.00017165       0.00000000
Si      -2.71474479      -2.71482624       0.00030897       0.00000000
Si       2.71568961       0.00146610      -2.71404850       0.00000000
Si       0.00267156       2.71583622      -2.71428882       0.00000000
