10
Lattice="16.28999089631971 0.0 0.0 0.0 16.28999089631971 0.0 0.0 0.0 34.33025523377368" Properties=species:S:1:pos:R:3:initial_magmoms:R:1 pbc="T T T"
Si      -1.11314457       0.84211155      -1.88854273       0.00000000
Si       1.51125588      -1.79883954       0.06131387       0.00000000
Si       1.14347655       1.97193708       0.66957767       0.00000000
Si      -1.88481816      -1.54443861      -0.00930350       0.00000000
Si      -2.77938351       1.92423996      -0.04335914       0.00000000
Si      -1.15751853      -3.00003156       1.71623908       0.00000000
Si       2.26020492      -1.63942560       2.57051363       0.00000000
Si       0.31086207      -3.81886470      -0.01671884       0.00000000
Si       2.37975723      -2.30729931      -2.13819248       0.00000000
Si       0.32938380       2.05462512      -3.36680434       0.00000000
