10
Lattice="16.28999089631971 0.0 0.0 0.0 16.28999089631971 0.0 0.0 0.0 34.33025523377368" Properties=species:S:1:pos:R:3:initial_magmoms:R:1 pbc="T T T"
Si      -1.38841299       1.28635614      -1.38587885       0.00000000
Si       1.31619942      -1.44462978      -1.38474595       0.00000000
Si      -1.68106284      -0.91313595       1.49027721       0.00000000
Si       1.87323597       0.91140921       1.25288336       0.00000000
Si      -0.19565919      -0.60015618       3.37435700       0.00000000
Si      -2.56901445      -2.57930973      -0.02204004       0.00000000
Si      -0.02958264       2.63726955      -2.74741753       0.00000000
Si      -2.78047494       2.61011412       0.02516409       0.00000000
Si       3.54770136      -0.84336588       1.11978489       0.00000000
Si       2.68535763      -0.08060292      -2.74285161       0.00000000
