10
Lattice="16.28999089631971 0.0 0.0 0.0 16.28999089631971 0.0 0.0 0.0 34.33025523377368" Properties=species:S:1:pos:R:3:initial_magmoms:R:1 pbc="T T T"
Si      -0.94918572       1.97247465       0.85207741       0.00000000
Si      -1.30344435      -0.66321477      -1.87419267       0.00000000
Si       2.11427910       0.69739119      -1.01991812       0.00000000
Si      -0.30877695      -1.66728150       1.79265827       0.00000000
Si      -0.27645759       1.81991880       3.10218659       0.00000000
Si      -1.13671620      -0.31226301       3.54326195       0.00000000
Si      -3.28886955       1.59635484       0.84037079       0.00000000
Si       1.36533006       0.53797725      -3.52911788       0.00000000
Si       3.63711717      -1.05766083      -0.57510076       0.00000000
Si       0.16493625      -1.48204791      -3.60715059       0.00000000
