10
Lattice="16.28999089631971 0.0 0.0 0.0 16.28999089631971 0.0 0.0 0.0 34.33025523377368" Properties=species:S:1:pos:R:3:initial_magmoms:R:1 pbc="T T T"
Si      -1.36799999      -1.34107425       1.36264069       0.00000000
Si       1.36348929       1.35505107       1.35855538       0.00000000
Si      -1.14216683       1.49055129      -1.43037775       0.00000000
Si       0.76162266      -1.96004538      -1.14172194       0.00000000
Si      -1.25852956      -0.04665456      -3.35967536       0.00000000
Si       0.70424928      -1.48116825      -3.43760508       0.00000000
Si      -2.70483746       2.70958086      -0.01565117       0.00000000
Si       0.00061902      -2.70767493       2.71655805       0.00000000
Si       2.70782154      -2.72464911      -0.00981846       0.00000000
Si       2.71425609       0.00801468       2.72016273       0.00000000
