10
Lattice="16.28999089631971 0.0 0.0 0.0 16.28999089631971 0.0 0.0 0.0 34.33025523377368" Properties=species:S:1:pos:R:3:initial_magmoms:R:1 pbc="T T T"
Si       0.60375627       2.04551901      -0.93333717       0.00000000
Si       1.36777356      -1.51832574      -1.17914194       0.00000000
Si       0.60033537      -0.37416501       2.31602330       0.00000000
Si      -2.32800390      -0.16555527       0.71849831       0.00000000
Si      -1.59474213      -1.03254165       2.77299359       0.00000000
Si      -0.68246955       3.50715555       0.38370948       0.00000000
Si       2.81628036       2.50675407      -0.37004603       0.00000000
Si       1.39906665       1.61098326       3.15725235       0.00000000
Si      -3.49239681      -1.22218983      -1.00210071       0.00000000
Si       1.23738840      -3.72006585      -0.40375836       0.00000000
