10
Lattice="16.28999089631971 0.0 0.0 0.0 16.28999089631971 0.0 0.0 0.0 34.33025523377368" Properties=species:S:1:pos:R:3:initial_magmoms:R:1 pbc="T T T"
Si       1.35524655      -1.35580041      -1.36002815       0.00000000
Si      -1.36114353      -1.35382932       1.36171033       0.00000000
Si      -1.35905841       1.35918614      -1.36006248       0.00000000
Si       1.34768799       1.36820103       1.38158756       0.00000000
Si       2.60180622      -0.09967851       2.74855043       0.00000000
Si       2.71440270      -2.71210581      -0.00116723       0.00000000
Si       2.71238274       2.71563164       0.00127022       0.00000000
Si       2.71254564       0.00104601      -2.71748153       0.00000000
Si      -0.00216657      -2.71363707      -2.71803082       0.00000000
Si      -2.71932228      -2.71293660      -0.00247178       0.00000000
