10
Lattice="16.28999089631971 0.0 0.0 0.0 16.28999089631971 0.0 0.0 0.0 34.33025523377368" Properties=species:S:1:pos:R:3:initial_magmoms:R:1 pbc="T T T"
Si       1.53650538      -1.00877454       1.40661433       0.00000000
Si      -1.15841448      -1.55509227      -1.32556056       0.00000000
Si       1.59433488       1.13596686      -1.34705131       0.00000000
Si      -1.29885057       1.56011189       1.59924150       0.00000000
Si       2.40194421       1.20541113       1.69279150       0.00000000
Si      -0.34432173      -1.63778031       2.71082146       0.00000000
Si       0.66132513       2.94157394       1.65561181       0.00000000
Si      -2.36861487      -0.11818395      -2.73389140       0.00000000
Si       0.34021665       2.60384640      -2.71401417       0.00000000
Si       2.86080093      -2.47251249       0.06512453       0.00000000
