10
Lattice="16.28999089631971 0.0 0.0 0.0 16.28999089631971 0.0 0.0 0.0 34.33025523377368" Properties=species:S:1:pos:R:3:initial_magmoms:R:1 pbc="T T T"
Si      -1.35539479      -1.35698958       1.35618316       0.00000000
Si      -1.35794092       1.35654975      -1.35769369       0.00000000
Si       1.35785295      -1.35783666      -1.35838030       0.00000000
Si       1.35980775       1.35865116       1.35583986       0.00000000
Si      -2.71410997       0.00073305      -2.71181704       0.00000000
Si       2.71013472       0.00016290       2.71730988       0.00000000
Si      -2.71178768      -0.00210141       2.71655461       0.00000000
Si      -2.71423445       2.71454931      -0.00034330       0.00000000
Si      -0.00260640      -2.71414206       2.71500975       0.00000000
Si       2.71555929       0.00148239      -2.71411717       0.00000000
