10
Lattice="16.28999089631971 0.0 0.0 0.0 16.28999089631971 0.0 0.0 0.0 34.33025523377368" Properties=species:S:1:pos:R:3:initial_magmoms:R:1 pbc="T T T"
Si       1.16812332       1.42897509      -1.58101213       0.00000000
Si      -0.07770330       1.87320339       1.57349380       0.00000000
Si      -1.61619606      -1.22228757      -1.42910066       0.00000000
Si       0.10386504      -2.28879387       1.46027255       0.00000000
Si      -0.53752113       0.78245757       3.55469393       0.00000000
Si       0.59847831      -1.26304515       3.46619049       0.00000000
Si      -3.14641350      -2.20327137       0.11521240       0.00000000
Si       2.51932995       0.06455727      -2.92099140       0.00000000
Si       2.26033524       2.65616595       1.76879873       0.00000000
Si      -0.21724344      -2.62652141      -2.90935344       0.00000000
