10
Lattice="16.28999089631971 0.0 0.0 0.0 16.28999089631971 0.0 0.0 0.0 34.33025523377368" Properties=species:S:1:pos:R:3:initial_magmoms:R:1 pbc="T T T"
Si       1.35044100       1.33628499      -1.39257325       0.00000000
Si      -1.36230012      -1.37801997      -1.39487338       0.00000000
Si       1.54654002      -1.20710529       1.41433865       0.00000000
Si      -1.34350146       1.51115814       1.56710837       0.00000000
Si       0.22421556      -2.58403546       2.80382217       0.00000000
Si      -2.71931576       2.69205282      -0.01685616       0.00000000
Si       2.70185940       2.71269225      -0.01129466       0.00000000
Si      -2.71162200      -2.71712802      -0.02059816       0.00000000
Si       0.00011403       2.69477325      -2.75404327       0.00000000
Si       2.72461653      -2.73676235      -0.01462470       0.00000000
