10
Lattice="16.28999089631971 0.0 0.0 0.0 16.28999089631971 0.0 0.0 0.0 34.33025523377368" Properties=species:S:1:pos:R:3:initial_magmoms:R:1 pbc="T T T"
Si       1.04891310      -2.11968316      -0.30296467       0.00000000
Si       0.50533209       1.19713092      -2.01333327       0.00000000
Si      -2.37315978       0.13590258      -0.37203718       0.00000000
Si       0.91118115       0.86510814       2.08460292       0.00000000
Si       1.64416599      -2.81595034       1.87930788       0.00000000
Si      -0.76375665       2.31482040       2.91553289       0.00000000
Si       2.79617850      -1.74589282      -1.89798355       0.00000000
Si      -0.63066735       3.24263364      -1.92482983       0.00000000
Si       1.42306182      -1.01461613       3.45184043       0.00000000
Si      -2.79010233       2.23423377      -1.51355314       0.00000000
