10
Lattice="16.28999089631971 0.0 0.0 0.0 16.28999089631971 0.0 0.0 0.0 34.33025523377368" Properties=species:S:1:pos:R:3:initial_magmoms:R:1 pbc="T T T"
Si      -0.49461327      -1.02574872      -2.00591793       0.00000000
Si      -1.13599944       2.04550272       0.08850345       0.00000000
Si       2.25696321       0.74230272      -0.23983130       0.00000000
Si      -0.50533209      -1.19713092       2.01333327       0.00000000
Si      -2.87849187      -1.06122834       1.64129609       0.00000000
Si      -3.29543442       1.03710285       0.49978013       0.00000000
Si       2.32687989       2.09629494       1.68249242       0.00000000
Si       1.24600581      -2.76191153      -1.96873825       0.00000000
Si       0.16811280       3.17267298       1.72921592       0.00000000
Si      -0.67618161       3.13624854      -1.89269669       0.00000000
