10
Lattice="16.28999089631971 0.0 0.0 0.0 16.28999089631971 0.0 0.0 0.0 34.33025523377368" Properties=species:S:1:pos:R:3:initial_magmoms:R:1 pbc="T T T"
Si       1.36199061       1.32701598       1.37827126       0.00000000
Si      -1.35529542      -1.38140829       1.37198882       0.00000000
Si       1.05801921      -1.51422066      -1.50026046       0.00000000
Si      -1.22702796       1.57494978      -1.44077639       0.00000000
Si      -2.23544412      -0.30112065      -2.60657380       0.00000000
Si      -0.96453090      -2.30071815      -2.56841090       0.00000000
Si       2.72822682       2.67869502       0.00052869       0.00000000
Si       0.00312768       2.69130348       2.73397380       0.00000000
Si      -2.71743264       2.71709055       0.00315495       0.00000000
Si       2.70402597      -2.74087395      -0.01748098       0.00000000
