10
Lattice="16.28999089631971 0.0 0.0 0.0 16.28999089631971 0.0 0.0 0.0 34.33025523377368" Properties=species:S:1:pos:R:3:initial_magmoms:R:1 pbc="T T T"
Si      -1.35120663       1.36441782       1.33997927       0.00000000
Si      -1.37187864      -1.34364807      -1.36867938       0.00000000
Si       1.34622140       1.37020077      -1.37036156       0.00000000
Si       1.36785910      -1.34027604       1.56384699       0.00000000
Si       2.70608081      -2.68094793       0.00236879       0.00000000
Si       2.69838704       2.72823291       0.00611079       0.00000000
Si      -2.73657339      -2.69107868       0.01163796       0.00000000
Si      -0.01332522      -2.69976451      -2.73049271       0.00000000
Si       2.70261430       0.01531260      -2.73073302       0.00000000
Si      -2.51932995      -0.06455727       2.92099140       0.00000000
