10
Lattice="16.28999089631971 0.0 0.0 0.0 16.28999089631971 0.0 0.0 0.0 34.33025523377368" Properties=species:S:1:pos:R:3:initial_magmoms:R:1 pbc="T T T"
Si      -0.20805588       0.47426706       2.29055024       0.00000000
Si      -1.70292402      -1.05147063      -1.23128962       0.00000000
Si       1.09789713       1.53321480      -1.44183720       0.00000000
Si       1.81108962      -1.57032342       0.05928838       0.00000000
Si       3.25097642       0.38217969      -0.93313119       0.00000000
Si      -0.33844104      -1.72747305       3.06593382       0.00000000
Si       2.09481255       0.08226450       2.87251705       0.00000000
Si      -0.58598388      -1.10503215      -3.35290058       0.00000000
Si       1.80986787      -2.19727665       2.33154059       0.00000000
Si      -2.02318542      -3.16001565      -0.15325035       0.00000000
