10
Lattice="16.28999089631971 0.0 0.0 0.0 16.28999089631971 0.0 0.0 0.0 34.33025523377368" Properties=species:S:1:pos:R:3:initial_magmoms:R:1 pbc="T T T"
Si      -1.18837179       1.01423169       1.83670401       0.00000000
Si       1.29187682       1.47217617      -1.44018934       0.00000000
Si       1.62793952      -1.22489397       1.38000837       0.00000000
Si      -1.41446542      -1.41543810      -1.46641767       0.00000000
Si       0.09109531      -3.02481680       1.45052275       0.00000000
Si       2.85959384      -2.62301743      -0.20347554       0.00000000
Si      -1.83962223      -3.43432133      -0.21916447       0.00000000
Si       2.18189726       3.32943165      -0.08112244       0.00000000
Si       2.63537828      -0.03898197      -3.00729771       0.00000000
Si      -2.44621296      -0.66046176       3.11708593       0.00000000
