10
Lattice="16.28999089631971 0.0 0.0 0.0 16.28999089631971 0.0 0.0 0.0 34.33025523377368" Properties=species:S:1:pos:R:3:initial_magmoms:R:1 pbc="T T T"
Si       1.91576494       1.06352523       1.00697561       0.00000000
Si      -1.03830831       0.26671617      -2.23297837       0.00000000
Si      -0.92357784      -1.91238084       1.35858628       0.00000000
Si       2.13823259      -1.64146185      -0.92053198       0.00000000
Si       0.37558224      -0.87560379       3.00330651       0.00000000
Si       0.35707680      -3.26953332      -0.13773306       0.00000000
Si       1.90337151       3.01006620      -0.41419476       0.00000000
Si       3.67571537      -0.26482653       0.20285759       0.00000000
Si       0.87514767       0.43057728      -3.60303096       0.00000000
Si      -1.83703959      -1.71843210      -3.07420741       0.00000000
