10
Lattice="16.28999089631971 0.0 0.0 0.0 16.28999089631971 0.0 0.0 0.0 34.33025523377368" Properties=species:S:1:pos:R:3:initial_magmoms:R:1 pbc="T T T"
Si      -0.59525289       0.69626718      -2.18227255       0.00000000
Si       2.09803797      -1.06306911       0.39637735       0.00000000
Si      -0.22110417       1.80133421       1.57253255       0.00000000
Si      -1.92410964      -0.98771157       1.06691627       0.00000000
Si      -2.06902548       0.75251655       2.66306805       0.00000000
Si      -1.81012851      -1.34229600      -2.62853179       0.00000000
Si       2.12171197      -0.42658623       2.76997252       0.00000000
Si      -0.73298484       3.68105849       0.20529504       0.00000000
Si      -1.64416599       2.81595034      -1.87930788       0.00000000
Si       1.72421505       1.84555830       2.91711208       0.00000000
