10
Lattice="16.28999089631971 0.0 0.0 0.0 16.28999089631971 0.0 0.0 0.0 34.33025523377368" Properties=species:S:1:pos:R:3:initial_magmoms:R:1 pbc="T T T"
Si       1.51501887      -1.18058517      -1.35067658       0.00000000
Si       1.36122498       1.34104167       1.37904369       0.00000000
Si      -1.35164646      -1.37582082       1.37643459       0.00000000
Si      -1.20585910       1.44246321      -1.59021264       0.00000000
Si       0.21533751      -2.44382580      -2.76336536       0.00000000
Si      -2.70253967       2.68928352      -0.01383853       0.00000000
Si       2.71909422       2.71336014       0.01695229       0.00000000
Si       0.00933417       2.69905752       2.73732100       0.00000000
Si      -2.69636666      -2.74413195       0.00322361       0.00000000
Si      -2.70635821      -0.01622484       2.73793894       0.00000000
