10
Lattice="16.28999089631971 0.0 0.0 0.0 16.28999089631971 0.0 0.0 0.0 34.33025523377368" Properties=species:S:1:pos:R:3:initial_magmoms:R:1 pbc="T T T"
Si      -1.35884664       1.35567009      -1.35916989       0.00000000
Si       1.35830907       1.35689184       1.35982217       0.00000000
Si      -1.35797350      -1.35913986       1.35985650       0.00000000
Si       1.36475991      -1.36717083      -1.35817432       0.00000000
Si      -2.71355839       2.71526607       0.00233446       0.00000000
Si      -2.71414255      -2.71495656       0.00573316       0.00000000
Si       2.71552671      -2.71420722       0.00343303       0.00000000
Si       0.00057015       2.71389771       2.71703524       0.00000000
Si      -2.71426703      -0.00114030       2.71720689       0.00000000
Si       2.71505430      -0.00048870       2.71710390       0.00000000
