10
Lattice="16.28999089631971 0.0 0.0 0.0 16.28999089631971 0.0 0.0 0.0 34.33025523377368" Properties=species:S:1:pos:R:3:initial_magmoms:R:1 pbc="T T T"
Si      -1.35696352      -1.35594702       1.35673245       0.00000000
Si       1.35773892      -1.35700587      -1.35721307       0.00000000
Si       1.35909099       1.35773892       1.35645780       0.00000000
Si      -1.35814291       1.35757602      -1.35772802       0.00000000
Si       2.71156824       0.00024435       2.71452913       0.00000000
Si      -2.71412854       0.00136836      -2.71470078       0.00000000
Si       2.71448415      -2.71438641       0.00006866       0.00000000
Si      -2.71483718      -2.71503801       0.00017165       0.00000000
Si       2.71487511       2.71521720      -0.00006866       0.00000000
Si      -0.00057015      -2.71389771      -2.71703524       0.00000000
