10
Lattice="16.28999089631971 0.0 0.0 0.0 16.28999089631971 0.0 0.0 0.0 34.33025523377368" Properties=species:S:1:pos:R:3:initial_magmoms:R:1 pbc="T T T"
Si       1.34294271       1.36725228      -1.38581019       0.00000000
Si      -1.28539308       1.39264839       1.42961562       0.00000000
Si      -1.37388057      -1.34964279      -1.38896857       0.00000000
Si       1.47212241      -1.33116993       1.53380800       0.00000000
Si      -2.71840582      -2.67721263      -0.01702782       0.00000000
Si       2.70444462      -2.69457777      -0.01033341       0.00000000
Si       2.70620394       2.72218932      -0.01853835       0.00000000
Si      -2.72861965       2.71901277      -0.01239323       0.00000000
Si       2.70240837       0.01071882      -2.74703990       0.00000000
Si      -0.01364613      -2.70296712      -2.74676526       0.00000000
