10
Lattice="16.28999089631971 0.0 0.0 0.0 16.28999089631971 0.0 0.0 0.0 34.33025523377368" Properties=species:S:1:pos:R:3:initial_magmoms:R:1 pbc="T T T"
Si       1.33460712       1.85588712      -0.45947639       0.00000000
Si      -0.74119011      -0.17159886      -2.24574923       0.00000000
Si       1.38290697      -1.75009986       0.94981570       0.00000000
Si      -1.38921837       1.10630277       1.68077591       0.00000000
Si       2.41520427       1.82933442       1.57912396       0.00000000
Si      -0.77137385      -3.07934757       1.34337797       0.00000000
Si       2.36895696      -0.29747169       2.68112577       0.00000000
Si      -2.92445315      -1.92831246       0.83467196       0.00000000
Si      -3.53117420       0.40381281       1.07724968       0.00000000
Si       2.77684227       1.03874814      -2.28073178       0.00000000
