10
Lattice="16.28999089631971 0.0 0.0 0.0 16.28999089631971 0.0 0.0 0.0 34.33025523377368" Properties=species:S:1:pos:R:3:initial_magmoms:R:1 pbc="T T T"
Si      -1.11266794      -1.95502806      -0.70545281       0.00000000
Si       0.74119011       0.17159886       2.24574923       0.00000000
Si      -1.35191917       1.91992311      -0.34460729       0.00000000
Si       2.21053182      -0.64058796      -1.18072113       0.00000000
Si       2.07579723       2.02748598       1.78627284       0.00000000
Si       0.74255522      -3.40524531      -0.67716466       0.00000000
Si       3.51803238       1.21034700      -0.03498255       0.00000000
Si      -2.89595053      -2.24916030       0.83518692       0.00000000
Si      -3.26061847       1.50514713       1.12826447       0.00000000
Si      -0.19761888       4.01846607      -0.29046845       0.00000000
