10
Lattice="16.28999089631971 0.0 0.0 0.0 16.28999089631971 0.0 0.0 0.0 34.33025523377368" Properties=species:S:1:pos:R:3:initial_magmoms:R:1 pbc="T T T"
Si      -0.96653198      -2.03235669      -0.46459160       0.00000000
Si      -1.70614685       1.55251845      -0.35590195       0.00000000
Si      -0.44306194      -0.51952068       2.32659703       0.00000000
Si       2.06354552       0.38670831      -1.31303001       0.00000000
Si       0.82130270      -3.32853570       0.21981675       0.00000000
Si      -0.58197654       3.39869673       0.44004546       0.00000000
Si       1.02794135      -2.50649343       2.43480605       0.00000000
Si       1.09442084       0.85711464       3.44998660       0.00000000
Si      -1.34802749      -2.13265422      -2.74027683       0.00000000
Si       2.89148477       1.69756461       1.82231963       0.00000000
