10
Lattice="16.28999089631971 0.0 0.0 0.0 16.28999089631971 0.0 0.0 0.0 34.33025523377368" Properties=species:S:1:pos:R:3:initial_magmoms:R:1 pbc="T T T"
Si      -1.66159629       1.59036012      -0.37437164       0.00000000
Si      -0.84465279      -2.05772022      -0.80913024       0.00000000
Si       1.75629006       1.23675309      -1.07326737       0.00000000
Si      -0.01671354      -0.74686392       2.32621939       0.00000000
Si      -3.49017485       0.95426820       0.94394523       0.00000000
Si      -2.08119411       1.61292177      -2.73856032       0.00000000
Si      -2.90819831      -2.44442853       0.50389977       0.00000000
Si       3.46788036      -0.24404049      -1.69471400       0.00000000
Si       0.91083906      -3.70788093      -0.69848376       0.00000000
Si       1.48678830      -2.56565871       2.58723247       0.00000000
