10
Lattice="16.28999089631971 0.0 0.0 0.0 16.28999089631971 0.0 0.0 0.0 34.33025523377368" Properties=species:S:1:pos:R:3:initial_magmoms:R:1 pbc="T T T"
Si       1.53748278       1.37663532       1.12338957       0.00000000
Si       0.44306194       0.51952068      -2.32659703       0.00000000
Si       1.47100329      -1.98697275       0.10820902       0.00000000
Si      -1.78115579      -1.62807147       0.78279892       0.00000000
Si      -2.13823259       1.64146185       0.92053198       0.00000000
Si      -0.52347005      -1.51283601      -2.79118863       0.00000000
Si      -0.22246764       2.70498708       1.92750759       0.00000000
Si      -2.50338923      -1.82045637      -1.54427873       0.00000000
Si       2.43315585      -0.26984385       2.61812972       0.00000000
Si      -1.26308492       2.07203913      -2.68249898       0.00000000
