10
Lattice="16.28999089631971 0.0 0.0 0.0 16.28999089631971 0.0 0.0 0.0 34.33025523377368" Properties=species:S:1:pos:R:3:initial_magmoms:R:1 pbc="T T T"
Si       1.36174137      -1.35417141       1.36164167       0.00000000
Si      -1.35608540       1.36036560       1.36188199       0.00000000
Si       1.38161517       1.34394129      -1.36253426       0.00000000
Si      -1.35013247      -1.36394541      -1.38951786       0.00000000
Si       2.71363218      -2.71218726       0.00336437       0.00000000
Si      -2.71286722      -2.71340901       0.00240312       0.00000000
Si      -2.71384462       2.71574892       0.00168218       0.00000000
Si      -2.71224820       0.00140094       2.71936970       0.00000000
Si       0.00203462      -2.71324611       2.71923238       0.00000000
Si       0.00184566       2.71669863       2.71933537       0.00000000
