10
Lattice="16.28999089631971 0.0 0.0 0.0 16.28999089631971 0.0 0.0 0.0 34.51877397758722" Properties=species:S:1:pos:R:3:initial_magmoms:R:1 pbc="T T T"
Si       1.21631240       1.40253805      -1.45921437       0.00000000
Si      -1.31962425       1.37798902       1.40618518       0.00000000
Si       1.39750607      -1.33011664       1.39245015       0.00000000
Si      -1.25650667      -1.44779560      -1.48251455       0.00000000
Si      -0.75515390       2.30220217      -2.56944232       0.00000000
Si      -2.28501852       0.38151343      -2.69049972       0.00000000
Si      -2.67332325       0.02203385       2.76586664       0.00000000
Si       2.72414738       2.71631026      -0.14645979       0.00000000
Si       2.91935045      -2.52335914      -0.05719419       0.00000000
Si      -2.77257822       2.68897564       0.08509573       0.00000000
