10
Lattice="16.28999089631971 0.0 0.0 0.0 16.28999089631971 0.0 0.0 0.0 34.51877397758722" Properties=species:S:1:pos:R:3:initial_magmoms:R:1 pbc="T T T"
Si       2.14742762      -0.77226003       0.43317634       0.00000000
Si      -0.27696584       0.65681999      -2.22956886       0.00000000
Si      -0.19592635       1.88585162       1.38693059       0.00000000
Si      -1.31055561      -1.93683213       0.41778095       0.00000000
Si       2.12186861      -0.87195483       2.76423045       0.00000000
Si       2.18243483      -2.77223220      -0.91191748       0.00000000
Si      -0.02351136      -3.61496277      -0.70269907       0.00000000
Si      -3.41668971      -1.35824391      -0.43220981       0.00000000
Si       0.75699793       1.17682122       3.43182391       0.00000000
Si      -2.50811496       2.43690974       1.29517964       0.00000000
