10
Lattice="16.28999089631971 0.0 0.0 0.0 16.28999089631971 0.0 0.0 0.0 34.51877397758722" Properties=species:S:1:pos:R:3:initial_magmoms:R:1 pbc="T T T"
Si      -0.61525701      -2.31773631      -0.75723877       0.00000000
Si       0.91515591       0.31530924      -2.32297671       0.00000000
Si      -2.36053503       0.94299552       0.36803937       0.00000000
Si       0.90306873       0.74573991       2.45497658       0.00000000
Si      -2.43266715      -1.60227788      -2.24158140       0.00000000
Si      -0.81591723      -0.53238978      -3.70890626       0.00000000
Si      -0.90459999       2.06664714       3.16119657       0.00000000
Si      -2.18090520       3.21592293      -0.40017637       0.00000000
Si      -0.77597415      -3.65569496       1.20318706       0.00000000
Si       2.85926967      -1.36140417      -2.38404046       0.00000000
