10
Lattice="16.28999089631971 0.0 0.0 0.0 16.28999089631971 0.0 0.0 0.0 34.51877397758722" Properties=species:S:1:pos:R:3:initial_magmoms:R:1 pbc="T T T"
Si      -1.35716877       1.35553977       1.36256033       0.00000000
Si       1.35790182      -1.35940050       1.36269840       0.00000000
Si      -1.35643572      -1.36523232      -1.38050320       0.00000000
Si       1.36023129       1.36125756      -1.39450057       0.00000000
Si       2.71166598      -2.71362078       0.00283054       0.00000000
Si       2.71440270       2.71213839      -0.00075941       0.00000000
Si      -2.71183377      -2.71844262       0.00303765       0.00000000
Si       0.00004887       2.71337643       2.71904535       0.00000000
Si      -2.71692765       2.71668330       0.00113912       0.00000000
Si       2.71508688      -0.00201996       2.71925246       0.00000000
