10
Lattice="16.28999089631971 0.0 0.0 0.0 16.28999089631971 0.0 0.0 0.0 34.51877397758722" Properties=species:S:1:pos:R:3:initial_magmoms:R:1 pbc="T T T"
Si      -1.35677781      -1.35751086      -1.35700280       0.00000000
Si       1.35793440       1.35728280      -1.35645050       0.00000000
Si      -1.35754344       1.35729909       1.35765866       0.00000000
Si       1.35767376      -1.35790182       1.35783125       0.00000000
Si      -2.71180119      -0.00175932      -2.71611125       0.00000000
Si       2.71169856       0.00306252      -2.71631836       0.00000000
Si       2.71425609      -0.00086337       2.71476502       0.00000000
Si      -2.71401663       0.00114030       2.71528280       0.00000000
Si      -2.71496959       2.71464705       0.00020711       0.00000000
Si       2.71511946       2.71466334       0.00010356       0.00000000
