10
Lattice="16.28999089631971 0.0 0.0 0.0 16.28999089631971 0.0 0.0 0.0 34.51877397758722" Properties=species:S:1:pos:R:3:initial_magmoms:R:1 pbc="T T T"
Si       1.36790388       1.32913368       1.37322663       0.00000000
Si      -1.35661491       1.35725022      -1.36045468       0.00000000
Si       1.35604476      -1.35940050      -1.35986786       0.00000000
Si      -1.35513252      -1.36508571       1.38040654       0.00000000
Si       2.71099809      -2.71295289       0.00117364       0.00000000
Si      -2.71614573       2.71021617       0.00365899       0.00000000
Si      -2.71251306      -2.71599912       0.00279602       0.00000000
Si       2.71467963       2.71384884      -0.00017259       0.00000000
Si       0.07188777       2.71912680       2.71020853       0.00000000
Si      -0.00037467       2.71352304      -2.71693970       0.00000000
