10
Lattice="16.28999089631971 0.0 0.0 0.0 16.28999089631971 0.0 0.0 0.0 34.51877397758722" Properties=species:S:1:pos:R:3:initial_magmoms:R:1 pbc="T T T"
Si      -1.35721764      -1.35783666      -1.35648502       0.00000000
Si       1.35775521      -1.35799956       1.35779673       0.00000000
Si      -1.35760860       1.35733167       1.35872874       0.00000000
Si       1.35928647       1.35760860      -1.35752058       0.00000000
Si       0.00151497      -2.71427238       2.71428175       0.00000000
Si      -2.71482135       2.71437012       0.00031067       0.00000000
Si       2.71505430       2.71480995       0.00006904       0.00000000
Si       2.71503801      -2.71539639       0.00020711       0.00000000
Si      -2.71505104      -2.71541268       0.00031067       0.00000000
Si       0.00081450       2.71588509       2.71514472       0.00000000
