10
Lattice="16.28999089631971 0.0 0.0 0.0 16.28999089631971 0.0 0.0 0.0 34.51877397758722" Properties=species:S:1:pos:R:3:initial_magmoms:R:1 pbc="T T T"
Si      -2.14402464      -0.72653400       0.49527565       0.00000000
Si       0.13582602       0.64029474      -2.28352173       0.00000000
Si       0.08303013       2.06218368       1.19866510       0.00000000
Si       1.76674824      -1.62784341       0.36658958       0.00000000
Si       3.23898957      -0.49287024      -1.12686601       0.00000000
Si       1.67752791       3.23450982      -0.16482724       0.00000000
Si       0.91575864       1.37883447       3.33689723       0.00000000
Si       0.52675344       2.95915995      -2.20433562       0.00000000
Si      -2.28242448      -1.23746985       2.77948775       0.00000000
Si      -2.00974617      -1.76163318      -2.89008597       0.00000000
