10
Lattice="16.28999089631971 0.0 0.0 0.0 16.28999089631971 0.0 0.0 0.0 34.51877397758722" Properties=species:S:1:pos:R:3:initial_magmoms:R:1 pbc="T T T"
Si      -1.56414788       0.92471814       1.52110514       0.00000000
Si       1.00895373      -1.88430502       1.04257111       0.00000000
Si      -1.39942503      -0.48793437      -1.86045940       0.00000000
Si       1.86035058       1.42081380      -0.42219936       0.00000000
Si      -2.60080438       1.58547312      -2.06743409       0.00000000
Si      -2.97250960       2.26302309       0.18098203       0.00000000
Si      -0.61965531      -3.54676373       1.34360951       0.00000000
Si       2.36568267      -1.01257011       2.86098662       0.00000000
Si      -2.96300928      -0.88865208       2.29736377       0.00000000
Si       0.00970884      -0.85491549      -3.77380159       0.00000000
