10
Lattice="16.28999089631971 0.0 0.0 0.0 16.28999089631971 0.0 0.0 0.0 34.51877397758722" Properties=species:S:1:pos:R:3:initial_magmoms:R:1 pbc="T T T"
Si       1.77792318      -1.28290266      -0.73248879       0.00000000
Si      -1.01335203      -1.31551524       1.69014367       0.00000000
Si       0.64927053       2.11230801       0.87349806       0.00000000
Si      -1.01188593      -0.34375158      -2.21317243       0.00000000
Si       0.78354900       1.07720883      -2.51186355       0.00000000
Si      -1.66649958       0.70025823       2.65860294       0.00000000
Si       0.51087069       1.60137216       3.15771017       0.00000000
Si       1.24916607      -3.37711248       0.28823192       0.00000000
Si       0.83414574      -2.57002443       2.43350589       0.00000000
Si      -2.94784166       2.10720924       1.05751775       0.00000000
