10
Lattice="16.28999089631971 0.0 0.0 0.0 16.28999089631971 0.0 0.0 0.0 34.51877397758722" Properties=species:S:1:pos:R:3:initial_magmoms:R:1 pbc="T T T"
Si       1.34957763       1.34759025      -1.36953312       0.00000000
Si       1.46404746      -1.23162174       1.39266071       0.00000000
Si      -1.36914192      -1.36552554      -1.36628836       0.00000000
Si      -1.31013954       1.36508329       1.46235416       0.00000000
Si      -0.09989028      -2.23529751       2.80820739       0.00000000
Si      -1.63170414      -0.31447845       3.28912322       0.00000000
Si       2.69610903       2.70521255      -0.02191943       0.00000000
Si       2.70260874      -2.71705797      -0.00058682       0.00000000
Si      -0.00667890       2.70416185      -2.72512065       0.00000000
Si      -2.69918458      -2.73367377       0.00835355       0.00000000
