10
Lattice="16.28999089631971 0.0 0.0 0.0 16.28999089631971 0.0 0.0 0.0 34.51877397758722" Properties=species:S:1:pos:R:3:initial_magmoms:R:1 pbc="T T T"
Si      -1.25762058       1.42991991       1.37099672       0.00000000
Si       1.44502074      -1.30253930       1.34056150       0.00000000
Si      -1.72297701      -0.87610552      -1.38842668       0.00000000
Si       1.44635652       1.30803813      -1.37710451       0.00000000
Si      -0.45893817      -1.77442802      -3.17159850       0.00000000
Si       0.00029322       2.44758879      -2.82440848       0.00000000
Si      -2.61780300       0.07018221       2.71746093       0.00000000
Si       0.09376524      -2.64221261       2.71860005       0.00000000
Si      -2.63037888       2.75019183       0.05934126       0.00000000
Si       2.70987408       2.73984768       0.03648291       0.00000000
