10
Lattice="16.28999089631971 0.0 0.0 0.0 16.28999089631971 0.0 0.0 0.0 34.51877397758722" Properties=species:S:1:pos:R:3:initial_magmoms:R:1 pbc="T T T"
Si      -1.35576783      -1.34169818       1.37567747       0.00000000
Si      -1.22925969       1.50216997      -1.35093440       0.00000000
Si       1.36607940       1.37276547       1.37015446       0.00000000
Si       1.27014759      -1.42979450      -1.49809837       0.00000000
Si       2.26090539       0.42647774      -2.73573315       0.00000000
Si       0.39452751       2.45049069      -2.76258877       0.00000000
Si      -2.69244378      -2.68192535      -0.01297561       0.00000000
Si       2.72212416      -2.69469671      -0.01483618       0.00000000
Si       0.00410508      -2.69464784       2.73054010       0.00000000
Si      -2.71075374       0.01642604       2.73171374       0.00000000
