10
Lattice="16.28999089631971 0.0 0.0 0.0 16.28999089631971 0.0 0.0 0.0 34.51877397758722" Properties=species:S:1:pos:R:3:initial_magmoms:R:1 pbc="T T T"
Si      -1.41398829       1.20427230      -1.35506975       0.00000000
Si      -1.45396395      -1.04850180       1.46477047       0.00000000
Si       0.92017323       1.64867327       1.43843263       0.00000000
Si       1.30552947      -1.50253668      -1.32793798       0.00000000
Si       1.87758540      -0.32582853       2.41068897       0.00000000
Si       0.31785048      -2.11689774       2.64855797       0.00000000
Si       2.62127277       2.52760022       0.08826455       0.00000000
Si      -2.75501367       2.47768766       0.11356683       0.00000000
Si      -0.04833243       2.56506722      -2.69653909       0.00000000
Si      -1.02394053       3.32538668       1.49949638       0.00000000
