10
Lattice="16.28999089631971 0.0 0.0 0.0 16.28999089631971 0.0 0.0 0.0 34.51877397758722" Properties=species:S:1:pos:R:3:initial_magmoms:R:1 pbc="T T T"
Si      -0.81241488      -2.21579838      -0.31746934       0.00000000
Si       1.47224133       1.13497317      -1.49345559       0.00000000
Si       1.25613819      -0.26365365       2.02621865       0.00000000
Si      -1.76674824       1.62784341      -0.36658958       0.00000000
Si      -0.38141406       0.69074487       3.47020881       0.00000000
Si       3.47628600       0.06216264      -0.82261736       0.00000000
Si       3.26596581       0.90282438       1.38189085       0.00000000
Si      -1.60244730      -2.79039555       1.86781190       0.00000000
Si      -1.63092222       2.26813815      -2.65011132       0.00000000
Si       1.78515594       3.46892292      -0.83304204       0.00000000
