10
Lattice="16.28999089631971 0.0 0.0 0.0 16.28999089631971 0.0 0.0 0.0 34.51877397758722" Properties=species:S:1:pos:R:3:initial_magmoms:R:1 pbc="T T T"
Si      -1.63755225       0.95439852       1.44399016       0.00000000
Si      -1.25613819       0.26365365      -2.02621865       0.00000000
Si       2.00982762       1.16647803      -0.64432780       0.00000000
Si       0.65151855      -2.19489831       0.85648030       0.00000000
Si       2.22014781       0.32581629      -2.84883601       0.00000000
Si      -2.06855307      -1.95214473      -2.34368799       0.00000000
Si       2.84508108      -1.83526398       1.52828505       0.00000000
Si      -3.44160459      -0.68144328       1.23967342       0.00000000
Si       0.21610314       1.39862682      -3.51967424       0.00000000
Si      -2.85858549      -2.52674190      -0.15840674       0.00000000
