10
Lattice="16.28999089631971 0.0 0.0 0.0 16.28999089631971 0.0 0.0 0.0 34.51877397758722" Properties=species:S:1:pos:R:3:initial_magmoms:R:1 pbc="T T T"
Si      -2.25416133      -0.27455166       0.56379545       0.00000000
Si       0.52259949      -1.80147852      -1.43297866       0.00000000
Si       0.03109761       2.20752306      -0.84819579       0.00000000
Si       1.57804488      -0.93344958       1.57882057       0.00000000
Si      -1.73154555      -1.22290659       2.68880688       0.00000000
Si       2.21298021      -2.67041970       0.10345282       0.00000000
Si      -0.94040541       1.96727814      -2.97417375       0.00000000
Si      -1.48458915       3.38980239       0.62824204       0.00000000
Si       2.61395856       0.93889044       2.54482900       0.00000000
Si       2.29258944       2.86275573      -1.08547797       0.00000000
