10
Lattice="16.28999089631971 0.0 0.0 0.0 16.28999089631971 0.0 0.0 0.0 34.51877397758722" Properties=species:S:1:pos:R:3:initial_magmoms:R:1 pbc="T T T"
Si      -1.77181443       1.06839594      -1.18378750       0.00000000
Si       1.55973492       1.79106921      -0.23786900       0.00000000
Si      -1.09066437       0.07874586       2.22076656       0.00000000
Si       0.94698657      -2.16292104      -1.02941945       0.00000000
Si      -0.31785048       2.11689774      -2.64855797       0.00000000
Si      -1.48159179      -2.24011935       2.14158045       0.00000000
Si       2.26883862      -0.76620015      -2.52259889       0.00000000
Si       3.56097771       0.64334097      -1.14212331       0.00000000
Si      -2.96390034      -0.61566426      -2.58904757       0.00000000
Si       0.60232275       3.76557101      -1.21012534       0.00000000
