10
Lattice="16.28999089631971 0.0 0.0 0.0 16.28999089631971 0.0 0.0 0.0 34.51877397758722" Properties=species:S:1:pos:R:3:initial_magmoms:R:1 pbc="T T T"
Si      -1.94178429       0.13563054      -1.29231458       0.00000000
Si       2.20569858       0.79793048      -0.24242549       0.00000000
Si       0.06439437      -1.14561054       2.07989537       0.00000000
Si       0.05945850      -1.01209770      -2.19656889       0.00000000
Si       2.50431057       1.30712330       2.08628135       0.00000000
Si       3.25612665      -1.34229600       0.54522434       0.00000000
Si      -0.16693992      -3.51802098       0.97356805       0.00000000
Si       2.25321651       2.11049072      -2.29898615       0.00000000
Si       1.45758033       0.29729250      -3.60804235       0.00000000
Si       1.94610114      -2.68982109       2.09863907       0.00000000
