10
Lattice="16.28999089631971 0.0 0.0 0.0 16.28999089631971 0.0 0.0 0.0 34.51877397758722" Properties=species:S:1:pos:R:3:initial_magmoms:R:1 pbc="T T T"
Si      -0.91261467       0.23454342      -2.15190157       0.00000000
Si       1.77503985       1.53042921       0.26593278       0.00000000
Si      -1.46632806       0.91748538       1.66132048       0.00000000
Si       0.56819520      -2.33155512       0.06303132       0.00000000
Si       0.04269609       0.62872884       3.43938352       0.00000000
Si       0.71881254       1.78370613      -2.97621036       0.00000000
Si       1.90319328       1.78610076       2.62204754       0.00000000
Si      -1.22552928      -2.09940633      -2.81231513       0.00000000
Si      -2.78699094       1.62797373      -1.85027636       0.00000000
Si       3.63394062       0.57497184      -0.78954836       0.00000000
