10
Lattice="16.28999089631971 0.0 0.0 0.0 16.28999089631971 0.0 0.0 0.0 34.51877397758722" Properties=species:S:1:pos:R:3:initial_magmoms:R:1 pbc="T T T"
Si       1.35647319       1.35615879      -1.35762414       0.00000000
Si      -1.35858338      -1.35821133      -1.35734799       0.00000000
Si      -1.36307823       1.35948195       1.35738251       0.00000000
Si       1.35971490      -1.35860229       1.36214610       0.00000000
Si      -2.71758155       2.71078632      -0.00124268       0.00000000
Si      -0.00095296       2.71350675      -2.71507568       0.00000000
Si       2.71401663      -0.00114030      -2.71528280       0.00000000
Si       2.71561305       2.71464705      -0.00110460       0.00000000
Si      -2.71536611      -0.00151497      -2.71490309       0.00000000
Si      -0.00081450      -2.71614736      -2.71511020       0.00000000
