10
Lattice="16.28999089631971 0.0 0.0 0.0 16.28999089631971 0.0 0.0 0.0 34.51877397758722" Properties=species:S:1:pos:R:3:initial_magmoms:R:1 pbc="T T T"
Si       1.35641943       1.35719778       1.35786577       0.00000000
Si      -1.35780408       1.35778584      -1.35700280       0.00000000
Si       1.35806472      -1.35745483      -1.35748606       0.00000000
Si      -1.35873261      -1.35786208       1.35658858       0.00000000
Si      -2.71339272       0.00100425       2.71462694       0.00000000
Si      -2.71503801       0.00051215      -2.71417820       0.00000000
Si      -2.71463076      -2.71504714      -0.00020711       0.00000000
Si       0.00027693      -2.71501456      -2.71493761       0.00000000
Si      -0.00105885       2.71580169      -2.71438531       0.00000000
Si      -2.71516833       2.71511751      -0.00010356       0.00000000
