10
Lattice="16.28999089631971 0.0 0.0 0.0 16.28999089631971 0.0 0.0 0.0 34.51877397758722" Properties=species:S:1:pos:R:3:initial_magmoms:R:1 pbc="T T T"
Si      -1.89089433       1.43180955      -0.38906132       0.00000000
Si      -0.50243247      -2.32964009       0.31867750       0.00000000
Si       1.45414314       0.11388339      -1.91924491       0.00000000
Si       0.40953060       0.72311310       2.30088468       0.00000000
Si       0.23231169       3.02997258       1.44323075       0.00000000
Si      -1.84239900      -0.01619226       3.07175838       0.00000000
Si      -2.09258082      -2.16673420       2.06539748       0.00000000
Si       0.35839629      -1.33164397      -3.49482071       0.00000000
Si      -2.88246663       1.87634736       1.73933296       0.00000000
Si       1.51775559      -3.42396971       1.08630642       0.00000000
