10
Lattice="16.28999089631971 0.0 0.0 0.0 16.28999089631971 0.0 0.0 0.0 34.51877397758722" Properties=species:S:1:pos:R:3:initial_magmoms:R:1 pbc="T T T"
Si      -1.35418770       1.35327546       1.35848711       0.00000000
Si       1.35731538       1.35635427      -1.35655406       0.00000000
Si      -1.35770634      -1.35832536      -1.35631243       0.00000000
Si       1.36028016      -1.35845568       1.35990238       0.00000000
Si      -0.00001629       2.71324611      -2.71390205       0.00000000
Si       2.71396287       2.71407690       0.00100105       0.00000000
Si       2.71453302      -0.00061902      -2.71400560       0.00000000
Si      -2.71490769      -0.00104256      -2.71383301       0.00000000
Si      -2.71531494       2.71373481       0.00120816       0.00000000
Si      -0.00070047      -2.71573848      -2.71410916       0.00000000
