10
Lattice="16.28999089631971 0.0 0.0 0.0 16.28999089631971 0.0 0.0 0.0 34.51877397758722" Properties=species:S:1:pos:R:3:initial_magmoms:R:1 pbc="T T T"
Si       1.43735859      -1.14240141      -1.46905080       0.00000000
Si      -0.90275922      -1.87520706       1.12572689       0.00000000
Si      -1.29997458       1.57420044      -1.44720041       0.00000000
Si       0.45273561       0.17537814       2.49936775       0.00000000
Si       2.50483904       1.27679391       1.81171886       0.00000000
Si       1.08318630      -3.23861490       1.39790757       0.00000000
Si       2.88649745      -2.39779026       0.03110143       0.00000000
Si       0.05599858      -2.48919345      -2.84082765       0.00000000
Si      -2.84315886      -2.57649156      -0.09713588       0.00000000
Si      -2.65702932       0.22362912      -2.84282974       0.00000000
