10
Lattice="16.28999089631971 0.0 0.0 0.0 16.28999089631971 0.0 0.0 0.0 34.51877397758722" Properties=species:S:1:pos:R:3:initial_magmoms:R:1 pbc="T T T"
Si       1.40836172      -1.33830495       1.34012311       0.00000000
Si      -0.27368733       2.35038636       0.09654906       0.00000000
Si       0.37170522      -0.67754997      -2.24841612       0.00000000
Si      -2.19532089      -0.63817704       0.66907777       0.00000000
Si      -2.93508237      -1.35966114      -1.43328933       0.00000000
Si      -1.79258322      -0.43390044      -3.19153859       0.00000000
Si      -1.32051531       2.66463675       2.19908876       0.00000000
Si       2.97250960      -2.26302309      -0.18098203       0.00000000
Si      -3.11961549       1.29251376       1.63929749       0.00000000
Si       1.57308457      -2.75095746      -2.04144143       0.00000000
