10
Lattice="16.28999089631971 0.0 0.0 0.0 16.28999089631971 0.0 0.0 0.0 34.51877397758722" Properties=species:S:1:pos:R:3:initial_magmoms:R:1 pbc="T T T"
Si       1.79543493       1.42096041      -0.29869112       0.00000000
Si      -2.30965321       0.15908814       0.14629065       0.00000000
Si       0.98474679      -1.88408511      -1.05996858       0.00000000
Si       1.01188593       0.34375158       2.21317243       0.00000000
Si       2.95894818      -0.52427736      -0.90850012       0.00000000
Si       2.78980911      -0.93915108       1.48068364       0.00000000
Si       0.71941527      -1.30570866      -3.30593387       0.00000000
Si      -3.02852961      -1.76992479       1.34640553       0.00000000
Si      -1.88829770       3.31934814      -0.71923358       0.00000000
Si      -3.10967045       2.10725811       1.11022795       0.00000000
