10
Lattice="16.28999089631971 0.0 0.0 0.0 16.28999089631971 0.0 0.0 0.0 34.51877397758722" Properties=species:S:1:pos:R:3:initial_magmoms:R:1 pbc="T T T"
Si      -1.03163430       1.91399355       0.80276906       0.00000000
Si       2.28073032      -0.43289046       0.12471640       0.00000000
Si      -1.04411732       0.00871515      -2.09794870       0.00000000
Si      -0.61505013      -1.90544130       1.30912523       0.00000000
Si       1.84103064      -2.38672935      -1.10242670       0.00000000
Si      -3.14356994       1.55564613      -0.23379579       0.00000000
Si      -0.07815127       3.65146866      -0.42754977       0.00000000
Si       1.14662052      -1.79639604       3.02843729       0.00000000
Si       0.22182093       1.48058181      -3.49209372       0.00000000
Si       0.73761120      -3.72281886       0.52230386       0.00000000
