10
Lattice="16.28999089631971 0.0 0.0 0.0 16.28999089631971 0.0 0.0 0.0 34.51877397758722" Properties=species:S:1:pos:R:3:initial_magmoms:R:1 pbc="T T T"
Si       1.35506736      -1.35879940      -1.36335426       0.00000000
Si      -1.35971490       1.35860229      -1.36214610       0.00000000
Si       1.35738054       1.35091341       1.37761052       0.00000000
Si      -1.37334148      -1.36514761       1.38365131       0.00000000
Si      -0.20069280       2.58295869       2.74172419       0.00000000
Si       2.71132389      -2.71537100      -0.00776673       0.00000000
Si       2.71251306       2.71599912      -0.00279602       0.00000000
Si       2.71197549      -0.00043983      -2.71959765       0.00000000
Si      -2.71520810      -2.71707421      -0.00027615       0.00000000
Si      -0.00324171       2.71476108      -2.71977024       0.00000000
