10
Lattice="10.86 0.0 0.0 0.0 10.86 0.0 0.0 0.0 10.86" Properties=species:S:1:pos:R:3:initial_magmoms:R:1 pbc="T T T"
Si       1.35750000       1.35750000       1.35750000       0.00000000
Si      -1.35750000      -1.35750000       1.35750000       0.00000000
Si      -1.35750000       1.35750000      -1.35750000       0.00000000
Si       1.35750000      -1.35750000      -1.35750000       0.00000000
Si       0.27188010       3.32114004      -0.29502276       0.00000000
Si      -1.74310602       2.76712800       0.79645068       0.00000000
Si       2.49655110      -2.60295738       0.01844028       0.00000000
Si       0.19150524       2.70644232      -2.60571582       0.00000000
Si       0.00870972      -2.76651984      -2.60617194       0.00000000
Si      -0.10376730      -2.59085934       2.81709486       0.00000000
