10
Lattice="10.86 0.0 0.0 0.0 10.86 0.0 0.0 0.0 10.86" Properties=species:S:1:pos:R:3:initial_magmoms:R:1 pbc="T T T"
Si       1.27027248      -1.41490596      -1.20273414       0.00000000
Si       1.27027248       1.30009404       1.51226586       0.00000000
Si      -1.44472752      -1.41490596       1.51226586       0.00000000
Si      -2.53034742       0.54873408      -0.14025690       0.00000000
Si      -2.61072228      -0.06596364      -2.45094996       0.00000000
Si       2.62777248      -0.05740596      -2.56023414       0.00000000
Si       2.62777248       2.65759404       0.15476586       0.00000000
Si      -0.08722752      -2.77240596      -2.56023414       0.00000000
Si       2.62777248      -2.77240596       0.15476586       0.00000000
Si       2.62777248      -0.05740596       2.86976586       0.00000000
