10
Lattice="10.86 0.0 0.0 0.0 10.86 0.0 0.0 0.0 10.86" Properties=species:S:1:pos:R:3:initial_magmoms:R:1 pbc="T T T"
Si      -1.29644508      -1.33277178       1.31955516       0.00000000
Si       1.41855492       1.38222822       1.31955516       0.00000000
Si       1.41855492      -1.33277178      -1.39544484       0.00000000
Si      -2.65394508       0.02472822       2.67705516       0.00000000
Si       0.06105492      -2.69027178       2.67705516       0.00000000
Si      -2.74397448      -2.64486612      -0.01521486       0.00000000
Si       0.06105492       2.73972822       2.67705516       0.00000000
Si       2.77605492       0.02472822       2.67705516       0.00000000
Si       2.77605492      -2.69027178      -0.03794484       0.00000000
Si       2.77605492       2.73972822      -0.03794484       0.00000000
