10
Lattice="16.28999089631971 0.0 0.0 0.0 16.28999089631971 0.0 0.0 0.0 34.376317263855086" Properties=species:S:1:pos:R:3:initial_magmoms:R:1 pbc="T T T"
Si       1.35288450       1.36243044       1.34982123       0.00000000
Si       1.35405738      -1.35613436      -1.35930910       0.00000000
Si      -1.36021500       1.35964485      -1.36009975       0.00000000
Si      -1.35672894      -1.36991895       1.38485071       0.00000000
Si      -0.15071508       2.57158827       2.68953581       0.00000000
Si       2.63637360      -0.02373453       2.72573410       0.00000000
Si      -2.71301805      -2.71053883       0.00202820       0.00000000
Si       2.71630863      -2.71209671       0.00137505       0.00000000
Si      -0.00148239      -2.71239546      -2.71662437       0.00000000
Si       2.71375110       0.00224802      -2.71689938       0.00000000
