10
Lattice="16.28999089631971 0.0 0.0 0.0 16.28999089631971 0.0 0.0 0.0 34.376317263855086" Properties=species:S:1:pos:R:3:initial_magmoms:R:1 pbc="T T T"
Si      -1.35586557      -1.35657149      -1.35679962       0.00000000
Si       1.35944937       1.35858274      -1.35686838       0.00000000
Si      -1.35454608       1.35931579       1.36154356       0.00000000
Si       1.36246302      -1.35423668       1.36233421       0.00000000
Si      -2.71333082       0.00168113      -2.71414927       0.00000000
Si       0.00158013      -2.71381041      -2.71418365       0.00000000
Si      -2.71541757      -2.71444572       0.00017188       0.00000000
Si       2.71412577      -2.71597698      -0.00061877       0.00000000
Si       0.00164529       2.71633795      -2.71401176       0.00000000
Si      -2.71481484       2.71632166      -0.00010313       0.00000000
