10
Lattice="16.28999089631971 0.0 0.0 0.0 16.28999089631971 0.0 0.0 0.0 34.376317263855086" Properties=species:S:1:pos:R:3:initial_magmoms:R:1 pbc="T T T"
Si      -0.04800663      -1.58535909      -1.70943208       0.00000000
Si      -1.19570229       1.80726147      -0.97962246       0.00000000
Si      -1.08046683      -0.30880953       2.10231923       0.00000000
Si       2.34680256       0.42205761       0.17483805       0.00000000
Si      -0.45937800       1.94333184       2.64037765       0.00000000
Si       0.65078550      -0.18233397      -3.50401435       0.00000000
Si      -0.96681150       3.40824267       0.73163157       0.00000000
Si      -2.30410647      -1.97591184      -2.01569087       0.00000000
Si      -0.27785853       2.05930035      -3.18376440       0.00000000
Si       0.97868691      -3.57010730      -0.88113426       0.00000000
