10
Lattice="16.28999089631971 0.0 0.0 0.0 16.28999089631971 0.0 0.0 0.0 34.376317263855086" Properties=species:S:1:pos:R:3:initial_magmoms:R:1 pbc="T T T"
Si      -2.25609984      -0.39055275      -0.30625878       0.00000000
Si       0.04800663       1.58535909       1.70943208       0.00000000
Si       0.69879213       1.40302512      -1.79458227       0.00000000
Si       1.02669354      -1.98474821       0.82829783       0.00000000
Si       2.39480919       2.00741670       1.88427013       0.00000000
Si      -1.14769566       3.39262056       0.72980962       0.00000000
Si       3.01482288       1.05438654      -1.79468540       0.00000000
Si       3.60776259       0.52866263       0.48577201       0.00000000
Si      -3.28723729      -1.00493729       1.71678862       0.00000000
Si       3.36808782      -1.82771261       0.56435632       0.00000000
