10
Lattice="16.28999089631971 0.0 0.0 0.0 16.28999089631971 0.0 0.0 0.0 34.376317263855086" Properties=species:S:1:pos:R:3:initial_magmoms:R:1 pbc="T T T"
Si      -1.20857139      -1.60722027      -1.26263050       0.00000000
Si      -1.41095835       1.24524018       1.58622042       0.00000000
Si       1.30836393      -1.45730340       1.57337054       0.00000000
Si       0.58963284       1.43441595      -2.15376827       0.00000000
Si       2.59856451       2.55748113       0.23519258       0.00000000
Si      -2.86537842       2.60260443       0.24208504       0.00000000
Si      -0.05628195       2.60714934       2.96780538       0.00000000
Si       2.69081478      -2.89007406       0.12614053       0.00000000
Si       2.66369193      -0.11127699       2.97158678       0.00000000
Si      -2.76512976      -2.89523799       0.07889025       0.00000000
