10
Lattice="16.28999089631971 0.0 0.0 0.0 16.28999089631971 0.0 0.0 0.0 34.376317263855086" Properties=species:S:1:pos:R:3:initial_magmoms:R:1 pbc="T T T"
Si       0.25008408      -0.89575452       2.20115120       0.00000000
Si      -1.91487321      -0.51707718      -1.35463392       0.00000000
Si       1.19492037       2.10851244      -0.32702209       0.00000000
Si       0.38483496      -2.79295308      -0.26603847       0.00000000
Si       3.04766352      -0.73370160       0.22385870       0.00000000
Si       2.60481987      -0.13787856      -2.21809873       0.00000000
Si      -2.13768783      -2.86091496      -0.82345076       0.00000000
Si      -0.40788531       0.87537573       3.61384675       0.00000000
Si       2.51022384      -1.48037004       2.50349108       0.00000000
Si      -1.08585882      -1.39281129      -3.47634140       0.00000000
