10
Lattice="16.28999089631971 0.0 0.0 0.0 16.28999089631971 0.0 0.0 0.0 34.376317263855086" Properties=species:S:1:pos:R:3:initial_magmoms:R:1 pbc="T T T"
Si      -0.06455727       1.17693621      -2.04872652       0.00000000
Si      -0.13735728       1.30930875       1.99991213       0.00000000
Si       2.02087224      -1.11276990      -0.73015339       0.00000000
Si      -1.90664676      -1.58493555       0.50516026       0.00000000
Si      -0.25065423      -0.70475427      -3.45238110       0.00000000
Si      -2.22949827       2.42988156       1.28670627       0.00000000
Si      -1.19511585      -3.48812883      -0.83170108       0.00000000
Si      -1.93556151      -1.73232747       2.89104990       0.00000000
Si       1.95196554      -1.29257892      -3.11387731       0.00000000
Si       2.54881485      -2.95072173       0.80285934       0.00000000
