10
Lattice="16.28999089631971 0.0 0.0 0.0 16.28999089631971 0.0 0.0 0.0 34.376317263855086" Properties=species:S:1:pos:R:3:initial_magmoms:R:1 pbc="T T T"
Si      -1.35648459      -1.35658233      -1.35597459       0.00000000
Si       1.35953082      -1.35322659       1.35934347       0.00000000
Si       1.35832536       1.35850455      -1.35621523       0.00000000
Si      -1.35509994       1.35754344       1.36047789       0.00000000
Si       2.68537392       0.00972513       2.70765214       0.00000000
Si      -2.69597871      -0.00636939       2.72463405       0.00000000
Si      -2.71441899       0.00125433      -2.71356487       0.00000000
Si       0.00117288      -2.71419093      -2.71383988       0.00000000
Si      -2.71524978       2.71428867       0.00134068       0.00000000
Si       0.00050499       2.71630863      -2.71342737       0.00000000
