10
Lattice="16.28999089631971 0.0 0.0 0.0 16.28999089631971 0.0 0.0 0.0 34.376317263855086" Properties=species:S:1:pos:R:3:initial_magmoms:R:1 pbc="T T T"
Si      -1.34561916      -1.35778779      -1.39220725       0.00000000
Si       1.36503684       1.36210464      -1.39024780       0.00000000
Si       1.27628892      -1.48230855       1.46322876       0.00000000
Si      -1.52966358       1.34185617       1.46659764       0.00000000
Si       2.69485470      -2.70560610      -0.04503300       0.00000000
Si      -2.68649793      -2.72170062      -0.02805109       0.00000000
Si       2.71067229       2.71510317      -0.00436579       0.00000000
Si      -2.71441899       2.71603170      -0.02409781       0.00000000
Si      -2.70576900      -0.00104256      -2.75134447       0.00000000
Si       0.00790065       2.71318095      -2.75268514       0.00000000
