10
Lattice="16.28999089631971 0.0 0.0 0.0 16.28999089631971 0.0 0.0 0.0 34.376317263855086" Properties=species:S:1:pos:R:3:initial_magmoms:R:1 pbc="T T T"
Si       0.96557346      -2.19960612       0.18649163       0.00000000
Si      -1.26651492       0.43666974      -2.00658114       0.00000000
Si       1.81174122       1.63268154       0.04193913       0.00000000
Si      -1.29632562      -0.09124029       2.08289660       0.00000000
Si      -3.30353055       0.82689669      -0.77549577       0.00000000
Si       2.40557688      -1.68246378       1.90919298       0.00000000
Si       0.92287737       2.89088856       2.01022503       0.00000000
Si       0.12554703       1.19254203       3.47286939       0.00000000
Si       3.69794403       0.16389369       0.18425716       0.00000000
Si       1.84549410      -2.59613730      -1.98485529       0.00000000
