10
Lattice="16.28999089631971 0.0 0.0 0.0 16.28999089631971 0.0 0.0 0.0 34.376317263855086" Properties=species:S:1:pos:R:3:initial_magmoms:R:1 pbc="T T T"
Si      -1.69683156       1.54825047      -0.26126016       0.00000000
Si       0.58319829      -1.32675534      -1.82493657       0.00000000
Si      -0.47860020      -1.38088701       1.84996255       0.00000000
Si       2.08989297       1.16455581       0.19563573       0.00000000
Si      -3.11870421       0.26446815      -1.65123295       0.00000000
Si       1.69816734      -1.86088815       2.53666424       0.00000000
Si      -2.33895078       1.87594011       1.99991213       0.00000000
Si      -1.42521210       0.14823900       3.31786649       0.00000000
Si       3.13020495      -0.07431498       1.88712337       0.00000000
Si       2.32130871      -2.74851396      -1.02726806       0.00000000
