10
Lattice="16.28999089631971 0.0 0.0 0.0 16.28999089631971 0.0 0.0 0.0 34.376317263855086" Properties=species:S:1:pos:R:3:initial_magmoms:R:1 pbc="T T T"
Si      -0.94661190       1.52912601       1.46790394       0.00000000
Si       2.17676754      -0.48000114       0.68670170       0.00000000
Si       0.47860020       1.38088701      -1.84996255       0.00000000
Si      -1.54676808      -1.79116695       0.19597949       0.00000000
Si       2.01567573      -0.86711670       2.98273159       0.00000000
Si       2.81465136      -2.31275646      -0.66748533       0.00000000
Si      -1.28477601      -2.44618785       2.49390008       0.00000000
Si      -1.86035058       3.25682712       0.14994958       0.00000000
Si      -1.21823136       2.92913748      -2.11122270       0.00000000
Si       1.06179849       0.05413167      -3.67489912       0.00000000
