10
Lattice="16.28999089631971 0.0 0.0 0.0 16.28999089631971 0.0 0.0 0.0 34.376317263855086" Properties=species:S:1:pos:R:3:initial_magmoms:R:1 pbc="T T T"
Si      -0.30449268       1.54844595       1.68650307       0.00000000
Si       0.29421369       1.42560306      -1.90427716       0.00000000
Si      -2.16007029      -0.90003879      -0.57566613       0.00000000
Si       2.09214099      -1.12057281       0.71320585       0.00000000
Si      -1.65091005       2.84175792       0.16105314       0.00000000
Si      -1.36287027       0.04761567       3.10905916       0.00000000
Si       2.22949827      -2.42988156      -1.28670627       0.00000000
Si       3.39879447       0.97019982       0.43943271       0.00000000
Si      -3.17689209      -0.75851127       1.66457096       0.00000000
Si       2.48617980       2.24834580      -1.48942353       0.00000000
