10
Lattice="16.28999089631971 0.0 0.0 0.0 16.28999089631971 0.0 0.0 0.0 34.376317263855086" Properties=species:S:1:pos:R:3:initial_magmoms:R:1 pbc="T T T"
Si      -1.35654975      -1.35602847      -1.35752153       0.00000000
Si       1.35878148       1.35913986      -1.35772779       0.00000000
Si       1.36014984      -1.35674523       1.35913722       0.00000000
Si      -1.35729909       1.36089918       1.36119980       0.00000000
Si       2.71366965       2.71422351      -0.00134068       0.00000000
Si       0.00083079      -2.71303434      -2.71490555       0.00000000
Si      -2.71372504       0.00151497      -2.71497430       0.00000000
Si       2.71524978      -2.71428867      -0.00134068       0.00000000
Si       2.71575477       0.00201996      -2.71476804       0.00000000
Si       0.00112401       2.71639008      -2.71490555       0.00000000
