10
Lattice="16.28999089631971 0.0 0.0 0.0 16.28999089631971 0.0 0.0 0.0 34.376317263855086" Properties=species:S:1:pos:R:3:initial_magmoms:R:1 pbc="T T T"
Si      -1.99141896      -1.29725415       0.14300556       0.00000000
Si       1.35694886      -1.75826115       1.07450115       0.00000000
Si       0.15347624       1.53065727       1.97213605       0.00000000
Si       1.19113295       0.26528265      -2.19138832       0.00000000
Si      -1.47100233       1.87460433      -0.94067407       0.00000000
Si      -1.35933438      -3.05296496       1.52060287       0.00000000
Si      -3.48550518       0.07638381       1.24146702       0.00000000
Si       1.90582412       2.49950502      -1.98193330       0.00000000
Si       0.47279933      -3.74841764       0.11932026       0.00000000
Si       2.46535303       2.02491216       2.11056955       0.00000000
