10
Lattice="16.28999089631971 0.0 0.0 0.0 16.28999089631971 0.0 0.0 0.0 34.376317263855086" Properties=species:S:1:pos:R:3:initial_magmoms:R:1 pbc="T T T"
Si      -0.79733034      -1.69834653       1.46264436       0.00000000
Si      -2.11724388       1.04347224      -0.50608843       0.00000000
Si       1.80165771       1.48548510       0.84576101       0.00000000
Si       0.88886385      -1.25820702      -1.96828590       0.00000000
Si      -0.87374673       1.88138327      -2.66172536       0.00000000
Si      -0.92287737      -2.89088856      -2.01022503       0.00000000
Si      -2.21920299      -2.98212885       0.07267158       0.00000000
Si      -1.77476292       3.27947741       0.07490604       0.00000000
Si       0.89950122      -3.24659700       1.72390452       0.00000000
Si       2.98450719       0.21983355       2.48052769       0.00000000
