10
Lattice="16.28999089631971 0.0 0.0 0.0 16.28999089631971 0.0 0.0 0.0 34.376317263855086" Properties=species:S:1:pos:R:3:initial_magmoms:R:1 pbc="T T T"
Si      -1.10684523      -1.37700201      -1.50026380       0.00000000
Si      -1.37454978       1.30673167       1.39971161       0.00000000
Si       0.98457412       1.57862806      -1.45533393       0.00000000
Si       1.35913009      -1.40087813       1.38580294       0.00000000
Si      -0.69111302       3.43806640      -1.15067395       0.00000000
Si       0.81378976      -2.21453820      -2.84922562       0.00000000
Si       2.71243813       2.59176832      -0.12880126       0.00000000
Si      -2.68280077       2.71562119      -0.00291168       0.00000000
Si      -0.00873470       2.66394931       2.76152330       0.00000000
Si      -1.96517740       0.13781177      -3.31499061       0.00000000
