10
Lattice="16.28999089631971 0.0 0.0 0.0 16.28999089631971 0.0 0.0 0.0 34.376317263855086" Properties=species:S:1:pos:R:3:initial_magmoms:R:1 pbc="T T T"
Si       1.46704482      -1.76130738      -0.47539036       0.00000000
Si      -1.93989465      -1.29121056       0.37339577       0.00000000
Si       0.65855583       1.18297980       1.98103952       0.00000000
Si       0.11010411       0.77040297      -2.31428372       0.00000000
Si       0.07973955      -2.84900697      -2.02823823       0.00000000
Si       3.38960691      -0.52310448      -0.92372654       0.00000000
Si      -0.83399913      -1.12130586      -3.34619259       0.00000000
Si       2.45149839       0.92743857      -2.57822524       0.00000000
Si      -1.22495913       2.55453983       2.39757759       0.00000000
Si      -1.51940088      -3.52088802      -0.39752795       0.00000000
