10
Lattice="16.28999089631971 0.0 0.0 0.0 16.28999089631971 0.0 0.0 0.0 34.376317263855086" Properties=species:S:1:pos:R:3:initial_magmoms:R:1 pbc="T T T"
Si      -2.24258728      -0.73806406      -0.29728656       0.00000000
Si       1.08046683       0.30880953      -2.10231923       0.00000000
Si       0.72409050      -1.47716091       1.72840782       0.00000000
Si       0.62108883       2.25214137       0.53805842       0.00000000
Si      -0.11523546       2.11607100      -3.08194169       0.00000000
Si       2.92640076       2.01717441       1.27536208       0.00000000
Si      -3.48996050       1.00466946      -1.14820401       0.00000000
Si      -2.25477709      -2.28148685      -2.09496270       0.00000000
Si      -3.04619579      -1.57940021       1.75549637       0.00000000
Si       0.11365533       3.71705220      -1.37068766       0.00000000
