10
Lattice="16.28999089631971 0.0 0.0 0.0 16.28999089631971 0.0 0.0 0.0 34.376317263855086" Properties=species:S:1:pos:R:3:initial_magmoms:R:1 pbc="T T T"
Si      -2.26013976       0.58461552      -0.30233988       0.00000000
Si       0.82166760      -1.82073330       1.32197640       0.00000000
Si       1.53616329       1.80177174       0.40330318       0.00000000
Si       0.53743968       0.74666844      -2.27963238       0.00000000
Si      -3.16602666      -1.55707965       0.25751314       0.00000000
Si       2.29369716      -1.64419857      -2.28537323       0.00000000
Si      -0.37540305      -1.67814693       3.29277177       0.00000000
Si      -2.12538888      -1.31258304      -2.76952955       0.00000000
Si       3.01058748      -1.16737398       1.91290562       0.00000000
Si       2.35063071       2.37561957      -1.72497019       0.00000000
