10
Lattice="16.28999089631971 0.0 0.0 0.0 16.28999089631971 0.0 0.0 0.0 34.376317263855086" Properties=species:S:1:pos:R:3:initial_magmoms:R:1 pbc="T T T"
Si      -0.14504616      -0.65931169      -2.16945622       0.00000000
Si       2.19716262       0.62812611       0.21828974       0.00000000
Si      -1.41793047       1.89237672       0.02959803       0.00000000
Si      -1.28645388      -1.86218972       1.96367947       0.00000000
Si       1.62984708       0.93349845       2.46496453       0.00000000
Si      -3.24379512       0.39118806      -0.37731467       0.00000000
Si      -2.38325958      -1.40365391      -1.84346542       0.00000000
Si       1.35839052      -2.47093955      -1.91744330       0.00000000
Si      -0.12368997       2.74870944       2.18406616       0.00000000
Si      -1.85740209      -3.14037710      -0.36717365       0.00000000
