10
Lattice="16.28999089631971 0.0 0.0 0.0 16.28999089631971 0.0 0.0 0.0 34.376317263855086" Properties=species:S:1:pos:R:3:initial_magmoms:R:1 pbc="T T T"
Si      -1.35355239       1.35435060      -1.35814030       0.00000000
Si       1.35863487       1.35586557       1.35851844       0.00000000
Si      -1.35646830      -1.35904212       1.35814030       0.00000000
Si       1.35866745      -1.36171368      -1.35917159       0.00000000
Si      -0.00078192       2.69527824      -2.72536283       0.00000000
Si      -2.71324611       2.71277370       0.00027501       0.00000000
Si       0.00104256       2.71422351       2.71559308       0.00000000
Si      -2.71420722      -0.00146610       2.71579933       0.00000000
Si       2.71713942       2.71305063       0.00024063       0.00000000
Si       2.71551042      -0.00100998       2.71535244       0.00000000
