10
Lattice="16.28999089631971 0.0 0.0 0.0 16.28999089631971 0.0 0.0 0.0 34.376317263855086" Properties=species:S:1:pos:R:3:initial_magmoms:R:1 pbc="T T T"
Si      -1.35874890      -1.35682668       1.35219320       0.00000000
Si      -1.35601218       1.35495333      -1.35844969       0.00000000
Si       1.35847197      -1.35935163      -1.35731527       0.00000000
Si       1.36741518       1.35259128       1.36333113       0.00000000
Si      -0.05890464       2.70282051       2.63518683       0.00000000
Si      -2.71295289      -0.00193851      -2.71449303       0.00000000
Si       0.00229689       2.71375110      -2.71469929       0.00000000
Si       2.71373481      -2.71479366       0.00343763       0.00000000
Si      -2.71187775       2.71671588       0.00079066       0.00000000
Si       2.71797021       2.71083519       0.00134068       0.00000000
