10
Lattice="16.28999089631971 0.0 0.0 0.0 16.28999089631971 0.0 0.0 0.0 34.376317263855086" Properties=species:S:1:pos:R:3:initial_magmoms:R:1 pbc="T T T"
Si       1.74970890      -0.96045840      -1.24782664       0.00000000
Si       0.87177564       1.91589948       1.25373937       0.00000000
Si       0.44284365      -0.59582304       2.44195744       0.00000000
Si      -1.10897433       1.66822632      -1.63964812       0.00000000
Si      -1.40989950       2.24639100       1.89107665       0.00000000
Si      -2.60481987       0.13787856       2.21809873       0.00000000
Si      -1.63160640      -2.81672019      -1.15542305       0.00000000
Si       0.15115491      -2.20915206      -2.77073272       0.00000000
Si       2.80712538      -2.54498670       0.16174066       0.00000000
Si      -2.00505465       3.25052289      -0.16400950       0.00000000
