10
Lattice="16.28999089631971 0.0 0.0 0.0 16.28999089631971 0.0 0.0 0.0 34.376317263855086" Properties=species:S:1:pos:R:3:initial_magmoms:R:1 pbc="T T T"
Si      -1.53306819      -1.75321125       0.07243094       0.00000000
Si       2.14710345      -0.92450637       0.22416809       0.00000000
Si      -0.16799877       1.16436033      -2.05161414       0.00000000
Si      -0.40257477       1.09659393       2.05652995       0.00000000
Si       0.61875936      -0.58735224      -3.37448432       0.00000000
Si      -1.61560962      -2.27463786       2.34766315       0.00000000
Si       2.60962542      -1.22329755      -2.23793388       0.00000000
Si      -3.70087623      -0.86760540      -0.44201093       0.00000000
Si       1.42381116       2.92537449      -2.09035627       0.00000000
Si      -1.93342752      -0.21510945       3.35052401       0.00000000
