10
Lattice="16.28999089631971 0.0 0.0 0.0 16.28999089631971 0.0 0.0 0.0 34.376317263855086" Properties=species:S:1:pos:R:3:initial_magmoms:R:1 pbc="T T T"
Si       1.63576035      -0.25772409       1.63500732       0.00000000
Si      -0.62740935       2.23811568      -0.16638147       0.00000000
Si       0.40257477      -1.09659393      -2.05652995       0.00000000
Si      -1.53085275      -1.31170338       1.29399406       0.00000000
Si      -1.54756629       2.47410891       1.97560806       0.00000000
Si      -1.21303485      -3.37123179       0.29113319       0.00000000
Si      -1.13049342      -2.84980518      -1.98409901       0.00000000
Si      -2.73706209       2.19240594      -1.15294795       0.00000000
Si       0.50961636       0.13506039       3.67861177       0.00000000
Si       2.54967822      -2.02110030      -1.83236186       0.00000000
