10
Lattice="16.28999089631971 0.0 0.0 0.0 16.28999089631971 0.0 0.0 0.0 34.376317263855086" Properties=species:S:1:pos:R:3:initial_magmoms:R:1 pbc="T T T"
Si       1.97156241       1.26695475       0.00089378       0.00000000
Si      -0.06890670      -0.17980902      -2.38372392       0.00000000
Si      -2.02087224       1.11276990       0.73015339       0.00000000
Si       0.52794261      -1.83795183       1.53301273       0.00000000
Si      -2.08542951       2.28970611      -1.31857314       0.00000000
Si      -2.27152647       0.40801563      -2.72222771       0.00000000
Si       3.04056108       0.42793830       1.88598895       0.00000000
Si      -1.29792204      -3.33914049       1.12610003       0.00000000
Si       3.09770640       0.87417027      -2.04271067       0.00000000
Si       1.68862140       3.56301396      -0.23149025       0.00000000
