10
Lattice="16.28999089631971 0.0 0.0 0.0 16.28999089631971 0.0 0.0 0.0 34.376317263855086" Properties=species:S:1:pos:R:3:initial_magmoms:R:1 pbc="T T T"
Si      -1.94086390      -0.23332167      -1.49210488       0.00000000
Si       0.01026270       0.24280245       2.49304067       0.00000000
Si      -0.72096771       2.38099527       0.48181873       0.00000000
Si       2.37056967      -0.91375497      -1.06164440       0.00000000
Si      -2.93948882      -1.19801384       0.63338400       0.00000000
Si      -1.67814693       2.02860999      -2.34494742       0.00000000
Si       1.16398566       3.50262693      -0.35717014       0.00000000
Si      -0.16052166      -3.55036382       1.09914898       0.00000000
Si       2.43893880      -2.90194037       0.26957923       0.00000000
Si      -1.66542444       2.10224079       2.79770065       0.00000000
