10
Lattice="16.28999089631971 0.0 0.0 0.0 16.28999089631971 0.0 0.0 0.0 34.376317263855086" Properties=species:S:1:pos:R:3:initial_magmoms:R:1 pbc="T T T"
Si      -0.48705471       0.75924432      -2.16807570       0.00000000
Si      -2.02968513      -0.59707737       1.15595588       0.00000000
Si       0.73081827       2.08259505       1.11953071       0.00000000
Si       1.90793367      -1.72722870      -0.37146523       0.00000000
Si      -2.73196332       0.37063008      -1.50677812       0.00000000
Si      -0.61178724      -1.92490785       2.52512755       0.00000000
Si       2.11366008       0.81370179       2.53228470       0.00000000
Si       0.78421689      -3.29406606       1.07842693       0.00000000
Si       3.50445141      -0.54560097       1.16651285       0.00000000
Si       1.10486925       2.72205900      -2.37440248       0.00000000
