10
Lattice="16.28999089631971 0.0 0.0 0.0 16.28999089631971 0.0 0.0 0.0 34.376317263855086" Properties=species:S:1:pos:R:3:initial_magmoms:R:1 pbc="T T T"
Si       1.27378026       1.38212505      -1.40216749       0.00000000
Si       1.38284181      -1.26889326       1.41275399       0.00000000
Si      -1.35011520       1.43412273       1.39209381       0.00000000
Si      -0.73081827      -2.08259505      -1.11953071       0.00000000
Si       0.37405098       0.63946395      -3.49393319       0.00000000
Si      -1.21787298      -1.32335073      -3.28760642       0.00000000
Si       0.01651806      -2.63122596       2.76890046       0.00000000
Si       2.77363314      -2.62819602       0.04698214       0.00000000
Si      -2.76050340      -2.67967242       0.03642517       0.00000000
Si      -2.69838963       0.08811261       2.77237247       0.00000000
