10
Lattice="16.28999089631971 0.0 0.0 0.0 16.28999089631971 0.0 0.0 0.0 34.376317263855086" Properties=species:S:1:pos:R:3:initial_magmoms:R:1 pbc="T T T"
Si       1.32713001      -1.37684709       1.28608750       0.00000000
Si      -1.32584310      -1.36295172      -1.34830867       0.00000000
Si       1.38955329       1.34926812      -1.34703674       0.00000000
Si      -1.41856578       1.22329755       1.50826176       0.00000000
Si       2.14513236       0.36395118       2.62710839       0.00000000
Si       0.29004345       2.16233460       2.93068581       0.00000000
Si      -2.68537392      -0.00972513      -2.70765214       0.00000000
Si      -2.69485470       2.70560610       0.04503300       0.00000000
Si       0.03046230       2.70557352      -2.70600208       0.00000000
Si      -2.70726768      -2.72477943       0.02227587       0.00000000
