10
Lattice="16.28999089631971 0.0 0.0 0.0 16.28999089631971 0.0 0.0 0.0 34.376317263855086" Properties=species:S:1:pos:R:3:initial_magmoms:R:1 pbc="T T T"
Si      -0.81800235      -1.74079827      -1.34102089       0.00000000
Si       1.17105552      -1.38526902       1.53321898       0.00000000
Si       1.89200205       0.89937090      -1.19303076       0.00000000
Si      -1.85508891       1.79838342       0.30357743       0.00000000
Si      -2.14513236      -0.36395118      -2.62710839       0.00000000
Si       0.60188292       2.34266490      -2.59510402       0.00000000
Si      -2.99056707      -1.72693548       1.35862157       0.00000000
Si      -3.56369814       0.85934637      -1.11884662       0.00000000
Si       3.17547486       2.14004988       0.34644472       0.00000000
Si      -0.94488516       3.54304242      -1.17127054       0.00000000
