10
Lattice="16.28999089631971 0.0 0.0 0.0 16.28999089631971 0.0 0.0 0.0 34.376317263855086" Properties=species:S:1:pos:R:3:initial_magmoms:R:1 pbc="T T T"
Si       1.49921757       0.35274366       1.73507683       0.00000000
Si      -1.88620281       1.46878785      -0.14231803       0.00000000
Si       1.10876256      -0.32739642      -2.23944644       0.00000000
Si      -1.29236715      -1.84635747       1.72493581       0.00000000
Si      -2.73237057      -2.36349981       0.00223446       0.00000000
Si       2.29314330      -1.86812091       2.11600102       0.00000000
Si      -3.69794403      -0.16389369      -0.18425716       0.00000000
Si       2.77966044       2.25375408       1.03679031       0.00000000
Si       0.21432753       0.64495368       3.74550812       0.00000000
Si      -0.59984667      -1.26643347      -3.66187049       0.00000000
