10
Lattice="16.28999089631971 0.0 0.0 0.0 16.28999089631971 0.0 0.0 0.0 34.376317263855086" Properties=species:S:1:pos:R:3:initial_magmoms:R:1 pbc="T T T"
Si       1.77424164      -0.04298931       1.47061967       0.00000000
Si      -0.65521638       2.24370315      -0.01110356       0.00000000
Si       0.92015694      -0.23599323      -2.14198953       0.00000000
Si      -1.99980927      -1.31629716       0.38353679       0.00000000
Si      -2.16995832       1.47922974      -1.67959342       0.00000000
Si      -1.18949580      -0.28170297      -3.12855601       0.00000000
Si       1.54756629      -2.47410891      -1.97560806       0.00000000
Si      -1.67857047       2.18499399       2.22954605       0.00000000
Si       2.05718265      -2.33904852       1.70300371       0.00000000
Si      -3.57497082       0.26769357      -0.23190277       0.00000000
