10
Lattice="16.28999089631971 0.0 0.0 0.0 16.28999089631971 0.0 0.0 0.0 34.376317263855086" Properties=species:S:1:pos:R:3:initial_magmoms:R:1 pbc="T T T"
Si       1.04031198      -1.23887079       1.69148764       0.00000000
Si      -0.00488700       2.30187474       0.56098743       0.00000000
Si      -2.08989297      -1.16455581      -0.19563573       0.00000000
Si       1.28489004      -0.29221002      -2.01043129       0.00000000
Si      -1.50669468      -2.49131115      -2.02057231       0.00000000
Si       2.87855703      -2.02165416       0.48814398       0.00000000
Si       2.07881577      -2.51307459      -1.62950710       0.00000000
Si      -0.21432753      -0.64495368      -3.74550812       0.00000000
Si      -3.78672453       0.38369466      -0.45689589       0.00000000
Si      -0.39172563      -3.02544396       2.34102851       0.00000000
