10
Lattice="16.28999089631971 0.0 0.0 0.0 16.28999089631971 0.0 0.0 0.0 34.376317263855086" Properties=species:S:1:pos:R:3:initial_magmoms:R:1 pbc="T T T"
Si       1.37484342      -0.90129312      -1.67780585       0.00000000
Si       0.20963601       2.38126310       0.28577049       0.00000000
Si      -2.28633408      -0.69543639      -0.43090738       0.00000000
Si       0.78415173      -0.96785406       2.09595961       0.00000000
Si      -0.98743464       2.52384947       2.25656586       0.00000000
Si       0.01241298       0.72881299       3.63667264       0.00000000
Si      -3.42479331      -0.23718240       1.58034894       0.00000000
Si       2.97334854       0.81133878      -2.22157074       0.00000000
Si      -0.59176683      -2.88769572       2.48492786       0.00000000
Si       1.96402014      -3.16500039      -1.10385854       0.00000000
