10
Lattice="16.28999089631971 0.0 0.0 0.0 16.28999089631971 0.0 0.0 0.0 34.376317263855086" Properties=species:S:1:pos:R:3:initial_magmoms:R:1 pbc="T T T"
Si      -0.94938120      -1.23789339      -1.78884142       0.00000000
Si       1.54971657       1.17864505      -1.38701642       0.00000000
Si      -1.56936231       1.52451335       1.00705478       0.00000000
Si       0.96454719      -1.77199362       1.42331784       0.00000000
Si       0.94553676      -2.43786366      -2.53876120       0.00000000
Si      -0.45923139       1.87166954       3.11208974       0.00000000
Si       2.32145532      -0.51802200      -2.92772945       0.00000000
Si      -3.68043228       0.46819089       1.11592463       0.00000000
Si      -0.76268151      -3.43463247       1.73892698       0.00000000
Si      -1.88748972       0.21264966      -3.44334012       0.00000000
