10
Lattice="16.28999089631971 0.0 0.0 0.0 16.28999089631971 0.0 0.0 0.0 34.376317263855086" Properties=species:S:1:pos:R:3:initial_magmoms:R:1 pbc="T T T"
Si      -1.32434442       0.26005356       1.91606824       0.00000000
Si       0.77439402       2.18481480      -0.48962216       0.00000000
Si       1.40556866      -1.78825104       0.67026981       0.00000000
Si      -2.00122650      -1.32139593      -0.51028234       0.00000000
Si       2.52251369      -0.32799915      -2.00176845       0.00000000
Si      -0.62791434      -2.54113737      -1.93160635       0.00000000
Si      -2.60925075      -1.76309928       1.76419359       0.00000000
Si      -3.05864298       0.26313237      -1.91984964       0.00000000
Si       0.76343085      -1.11472470      -3.37596250       0.00000000
Si       0.12214242       0.51194583       3.78033135       0.00000000
