10
Lattice="16.28999089631971 0.0 0.0 0.0 16.28999089631971 0.0 0.0 0.0 34.376317263855086" Properties=species:S:1:pos:R:3:initial_magmoms:R:1 pbc="T T T"
Si       1.49408622      -1.37363796      -1.09846146       0.00000000
Si       0.37541934       0.23925123       2.27296337       0.00000000
Si      -2.18891988      -0.65335932      -0.59092922       0.00000000
Si       0.51644187       2.33320041      -0.37305200       0.00000000
Si       0.05391990       2.63199159       2.08904997       0.00000000
Si       2.01450285       1.79822052      -2.18214109       0.00000000
Si      -1.47442419       2.96914572      -1.50960244       0.00000000
Si      -3.38599053      -0.51077295       1.37986615       0.00000000
Si       3.48550518      -0.07638381      -1.24146702       0.00000000
Si      -3.01058748       1.16737398      -1.91290562       0.00000000
