10
Lattice="16.28999089631971 0.0 0.0 0.0 16.28999089631971 0.0 0.0 0.0 34.376317263855086" Properties=species:S:1:pos:R:3:initial_magmoms:R:1 pbc="T T T"
Si       1.33265232      -1.31406543       1.44648061       0.00000000
Si       1.12371678       1.56683736      -1.44989216       0.00000000
Si      -0.84242106      -1.82977425      -1.35401656       0.00000000
Si      -1.39600413       1.36915821       1.44670062       0.00000000
Si       0.37595691      -0.42021684      -3.15550847       0.00000000
Si      -0.78421689       3.29406606      -1.07842693       0.00000000
Si       2.71715571      -2.63187756       0.04711621       0.00000000
Si       2.72023452       2.74846509       0.08808592       0.00000000
Si      -2.72165175      -2.75056650      -0.03152310       0.00000000
Si       2.67698457       0.03114648       2.81736078       0.00000000
