10
Lattice="16.28999089631971 0.0 0.0 0.0 16.28999089631971 0.0 0.0 0.0 34.376317263855086" Properties=species:S:1:pos:R:3:initial_magmoms:R:1 pbc="T T T"
Si      -1.35687555       1.35687555      -1.35683400       0.00000000
Si       1.35755973       1.35584928       1.35731527       0.00000000
Si       1.35785295      -1.35752715      -1.35752153       0.00000000
Si      -1.35829278      -1.35786924       1.35762466       0.00000000
Si       2.71435736       0.00029322      -2.71414927       0.00000000
Si       0.00120546       2.71231758       2.71628060       0.00000000
Si       0.00076563      -2.71492398      -2.71404614       0.00000000
Si       0.00162900       2.71406061      -2.71511181       0.00000000
Si      -2.71446786       2.71523349       0.00024063       0.00000000
Si       2.71574417       2.71440270       0.00000000       0.00000000
