10
Lattice="16.28999089631971 0.0 0.0 0.0 16.28999089631971 0.0 0.0 0.0 34.376317263855086" Properties=species:S:1:pos:R:3:initial_magmoms:R:1 pbc="T T T"
Si      -1.35755973      -1.35584928      -1.35731527       0.00000000
Si       1.36093176      -1.35480672       1.35580271       0.00000000
Si      -1.35635427       1.35646830       1.35896533       0.00000000
Si       1.35818444       1.35855342      -1.35731527       0.00000000
Si       2.68877594      -0.00871515       2.72470281       0.00000000
Si       2.71209508       2.71497285       0.00034376       0.00000000
Si       2.71373711      -2.71360449      -0.00041252       0.00000000
Si      -2.70690930      -0.00177561       2.72095578       0.00000000
Si       0.00029322      -2.71337643      -2.71483680       0.00000000
Si      -2.71443528       0.00102627      -2.71414927       0.00000000
