10
Lattice="16.28999089631971 0.0 0.0 0.0 16.28999089631971 0.0 0.0 0.0 34.376317263855086" Properties=species:S:1:pos:R:3:initial_magmoms:R:1 pbc="T T T"
Si      -2.14710345       0.92450637      -0.22416809       0.00000000
Si       0.32149944      -2.39274036       0.18391340       0.00000000
Si       0.46252197      -0.29879118      -2.46210197       0.00000000
Si       1.98957915       1.70121357       0.70859942       0.00000000
Si       2.47656870       0.91432512      -1.49427059       0.00000000
Si       1.99252764      -0.11497482       2.35347275       0.00000000
Si       2.52221328      -1.79486478       0.71379025       0.00000000
Si      -0.05391990      -2.63199159      -2.08904997       0.00000000
Si      -0.12008988      -0.44432604       3.54825670       0.00000000
Si      -2.54967822       2.02110030       1.83236186       0.00000000
