10
Lattice="16.28999089631971 0.0 0.0 0.0 16.28999089631971 0.0 0.0 0.0 34.376317263855086" Properties=species:S:1:pos:R:3:initial_magmoms:R:1 pbc="T T T"
Si      -2.00230164      -1.23129594       0.07143403       0.00000000
Si       0.93850667      -1.29990942      -1.73256736       0.00000000
Si       1.89568589      -0.94752414       1.09419879       0.00000000
Si      -0.27865674       2.22949827      -0.83926388       0.00000000
Si      -3.38165739       0.26293689       1.35521831       0.00000000
Si       3.11426423      -0.37958958      -1.95752610       0.00000000
Si       0.67578969      -3.56184108      -0.87972483       0.00000000
Si       0.95122916      -1.22627862       3.41008071       0.00000000
Si       3.78063926       0.17410752       0.25520992       0.00000000
Si      -2.53068408      -1.49853339      -2.49259378       0.00000000
