10
Lattice="16.28999089631971 0.0 0.0 0.0 16.28999089631971 0.0 0.0 0.0 34.376317263855086" Properties=species:S:1:pos:R:3:initial_magmoms:R:1 pbc="T T T"
Si       1.34874684       1.35153243       1.36154356       0.00000000
Si      -1.38284181       1.26889326      -1.41275399       0.00000000
Si      -1.36632375      -1.36233270       1.35614647       0.00000000
Si       1.39079133      -1.35930276      -1.36577185       0.00000000
Si      -2.11366008      -0.81370179      -2.53228470       0.00000000
Si       2.69376327       2.71502172      -0.02797202       0.00000000
Si       2.70510111      -0.00504990       2.71920259       0.00000000
Si      -0.00892692       2.70848943       2.71872132       0.00000000
Si       2.70168021      -2.73224025       0.00121692       0.00000000
Si      -2.73295701       2.70301599      -0.02066018       0.00000000
