10
Lattice="16.28999089631971 0.0 0.0 0.0 16.28999089631971 0.0 0.0 0.0 34.376317263855086" Properties=species:S:1:pos:R:3:initial_magmoms:R:1 pbc="T T T"
Si      -1.28347281      -1.24067898      -1.53947548       0.00000000
Si       1.30434030       1.36923966      -1.59475263       0.00000000
Si      -1.51488855       1.77166782       1.31389796       0.00000000
Si       1.98333749      -1.45808532       1.23221978       0.00000000
Si       3.14918999       0.64873296       1.23682621       0.00000000
Si       0.57288672       3.32900811       1.08185769       0.00000000
Si       2.54600387       2.54343915      -0.05957419       0.00000000
Si      -0.74147193      -0.30726198       3.74375492       0.00000000
Si      -3.17547486      -2.14004988      -0.34644472       0.00000000
Si       0.13796001      -2.51118495      -2.95791187       0.00000000
