10
Lattice="16.28999089631971 0.0 0.0 0.0 16.28999089631971 0.0 0.0 0.0 34.376317263855086" Properties=species:S:1:pos:R:3:initial_magmoms:R:1 pbc="T T T"
Si       0.03445335       1.97428284       1.21833174       0.00000000
Si       1.63888803      -1.16493048      -1.16377650       0.00000000
Si      -1.13365368       0.51108246      -2.03150398       0.00000000
Si      -0.81906120      -1.76321331       1.56525773       0.00000000
Si      -2.50056387      -1.34288244      -1.43139627       0.00000000
Si      -1.36849032      -3.09741318      -0.27642012       0.00000000
Si       1.46269539       1.10643309       2.98121903       0.00000000
Si       0.75942351      -3.36422709      -1.32926418       0.00000000
Si      -2.31352209       2.70822879       1.16831417       0.00000000
Si       3.61494552      -1.18524411       0.04207664       0.00000000
