10
Lattice="16.28999089631971 0.0 0.0 0.0 16.28999089631971 0.0 0.0 0.0 34.376317263855086" Properties=species:S:1:pos:R:3:initial_magmoms:R:1 pbc="T T T"
Si       1.15544970       0.99859329       1.77364708       0.00000000
Si      -1.76355540      -1.02512970       1.15122913       0.00000000
Si       1.14306930      -1.90187379      -0.78288669       0.00000000
Si      -0.48120660       1.84117725      -1.41396747       0.00000000
Si      -1.32629922       0.66645648      -3.27953688       0.00000000
Si       2.69138493      -2.19364398       1.07422614       0.00000000
Si      -3.53779704      -0.98214039      -0.31939054       0.00000000
Si       2.69478954       2.40808554       0.72461880       0.00000000
Si       2.07282105      -0.74179773       3.05210303       0.00000000
Si       1.53474606       3.20999337      -1.22768210       0.00000000
