10
Lattice="16.28999089631971 0.0 0.0 0.0 16.28999089631971 0.0 0.0 0.0 34.376317263855086" Properties=species:S:1:pos:R:3:initial_magmoms:R:1 pbc="T T T"
Si       1.53933984       1.40949225      -1.04902828       0.00000000
Si      -1.15544970      -0.99859329      -1.77364708       0.00000000
Si       0.91737135      -1.74039102       1.27845595       0.00000000
Si      -1.62236997       1.27754325       1.19774032       0.00000000
Si      -3.21429393      -0.68527143       1.40406709       0.00000000
Si      -2.91900510      -2.02372299      -0.62241795       0.00000000
Si       1.53593523      -3.19223727      -0.69942094       0.00000000
Si      -1.63665630       0.84258396      -3.18761455       0.00000000
Si       3.10846499      -0.08447994      -2.05745811       0.00000000
Si       0.37929636       2.21140008      -3.00132918       0.00000000
