10
Lattice="16.28999089631971 0.0 0.0 0.0 16.28999089631971 0.0 0.0 0.0 34.376317263855086" Properties=species:S:1:pos:R:3:initial_magmoms:R:1 pbc="T T T"
Si       0.82279161       1.72631646       1.50492726       0.00000000
Si       2.11361121      -1.45824822      -0.57181598       0.00000000
Si      -1.34936586      -1.16579385       1.97581432       0.00000000
Si      -0.57969594       1.07439066      -2.62377388       0.00000000
Si       1.44448317       0.62667630       3.68727460       0.00000000
Si      -0.81966393       3.44531871       1.96546704       0.00000000
Si       0.12800682      -1.38834783       3.86417523       0.00000000
Si      -3.29874943       0.04347801       2.45973000       0.00000000
Si       1.92259467       3.66068880      -0.41265354       0.00000000
Si       4.02848442      -0.94117104       0.78281793       0.00000000
