10
Lattice="16.28999089631971 0.0 0.0 0.0 16.28999089631971 0.0 0.0 0.0 34.376317263855086" Properties=species:S:1:pos:R:3:initial_magmoms:R:1 pbc="T T T"
Si      -1.35689184      -1.35694071      -1.35728089       0.00000000
Si       1.35906738       1.35811359      -1.35693713       0.00000000
Si       1.36125756      -1.35560493       1.35992787       0.00000000
Si      -1.35896067       1.36151820       1.35879345       0.00000000
Si      -2.71358820       0.00016290      -2.71428678       0.00000000
Si      -2.71425609       2.71375110      -0.00089378       0.00000000
Si       0.00102627      -2.71422351      -2.71442428       0.00000000
Si       2.71411178       2.71477737      -0.00017188       0.00000000
Si       2.71307248      -2.71586880       0.00030939       0.00000000
Si      -2.71477737      -2.71520091       0.00017188       0.00000000
