10
Lattice="16.28999089631971 0.0 0.0 0.0 16.28999089631971 0.0 0.0 0.0 34.376317263855086" Properties=species:S:1:pos:R:3:initial_magmoms:R:1 pbc="T T T"
Si       0.22889079       1.60098120       1.71125403       0.00000000
Si      -2.31187680      -0.49425489      -0.13843351       0.00000000
Si       1.19570229      -1.80726147       0.97962246       0.00000000
Si       0.91784376       0.25203888      -2.20414194       0.00000000
Si       1.14769566      -3.39262056      -0.72980962       0.00000000
Si       0.73632429       0.13607037       3.62000011       0.00000000
Si       1.84648779      -1.98959544      -2.52439189       0.00000000
Si       0.11523546      -2.11607100       3.08194169       0.00000000
Si      -3.42036962       1.59778836      -0.27432317       0.00000000
Si      -2.46535303      -2.02491216      -2.11056955       0.00000000
