10
Lattice="16.28999089631971 0.0 0.0 0.0 16.28999089631971 0.0 0.0 0.0 34.376317263855086" Properties=species:S:1:pos:R:3:initial_magmoms:R:1 pbc="T T T"
Si      -1.15196364       1.39732362      -1.52084350       0.00000000
Si       1.62236997      -1.27754325      -1.19774032       0.00000000
Si       0.89972928       0.74266110       2.09176570       0.00000000
Si      -1.59192396      -1.96281468       0.20632677       0.00000000
Si      -0.37405098      -0.63946395       3.49393319       0.00000000
Si       2.18272968       2.94936966      -0.52753926       0.00000000
Si       0.46692027      -2.27613654      -2.97138740       0.00000000
Si      -1.10486925      -2.72205900       2.37440248       0.00000000
Si       0.31900707       3.22444260      -2.00269661       0.00000000
Si       3.16170981       0.13194900      -2.24676860       0.00000000
