10
Lattice="16.28999089631971 0.0 0.0 0.0 16.28999089631971 0.0 0.0 0.0 34.376317263855086" Properties=species:S:1:pos:R:3:initial_magmoms:R:1 pbc="T T T"
Si       1.57696974       1.71691713      -0.30072419       0.00000000
Si      -0.22889079      -1.60098120      -1.71125403       0.00000000
Si      -1.81091206       1.58441427       0.39443408       0.00000000
Si       0.50743350      -1.46491083       1.90874608       0.00000000
Si      -0.91473237       1.93539861       2.58551302       0.00000000
Si       0.90303615       3.10648671       1.56883287       0.00000000
Si       0.96681150      -3.40824267      -0.73163157       0.00000000
Si      -0.60097068      -0.24290019       3.59201777       0.00000000
Si       1.31497767       2.37193803      -2.59864478       0.00000000
Si      -2.54076759      -2.09523609      -1.84968754       0.00000000
