10
Lattice="16.28999089631971 0.0 0.0 0.0 16.28999089631971 0.0 0.0 0.0 34.376317263855086" Properties=species:S:1:pos:R:3:initial_magmoms:R:1 pbc="T T T"
Si       0.89617969       0.35098434       2.19107893       0.00000000
Si       1.81091206      -1.58441427      -0.39443408       0.00000000
Si      -2.32533790      -0.80071866      -0.17714126       0.00000000
Si       0.11927701       2.37208464      -0.71097139       0.00000000
Si       2.71394821       1.52207244       1.17439878       0.00000000
Si      -1.83834835      -1.58760711      -2.38001128       0.00000000
Si      -3.05118772       1.51619175       0.25252857       0.00000000
Si       3.38788180       0.13250286      -0.69515828       0.00000000
Si      -1.49885235       3.32369757       0.70777439       0.00000000
Si      -2.32238941      -2.61690705       1.46773206       0.00000000
