10
Lattice="16.28999089631971 0.0 0.0 0.0 16.28999089631971 0.0 0.0 0.0 34.376317263855086" Properties=species:S:1:pos:R:3:initial_magmoms:R:1 pbc="T T T"
Si      -1.36094968       1.35358497      -1.36271235       0.00000000
Si       1.35744570      -1.36192545      -1.36309049       0.00000000
Si       1.37523438       1.34781831       1.36064977       0.00000000
Si      -1.38426881      -1.37010303       1.36164669       0.00000000
Si       0.06708222       2.58199758       2.82893186       0.00000000
Si       2.54896146      -0.13859532       2.85811737       0.00000000
Si      -2.71276460       2.71384884      -0.00309387       0.00000000
Si       2.71611315       2.71173114      -0.00350639       0.00000000
Si      -2.71211300      -2.71619460      -0.00725341       0.00000000
Si       2.71471221      -2.71524978      -0.00488144       0.00000000
