10
Lattice="16.28999089631971 0.0 0.0 0.0 16.28999089631971 0.0 0.0 0.0 34.376317263855086" Properties=species:S:1:pos:R:3:initial_magmoms:R:1 pbc="T T T"
Si      -1.35733994       1.35725999       1.35721214       0.00000000
Si      -1.35775189      -1.35728964      -1.35734965       0.00000000
Si       1.35746525      -1.35825261       1.35734965       0.00000000
Si       1.35858926       1.35699935      -1.35776216       0.00000000
Si       2.71333082      -0.00168113       2.71414927       0.00000000
Si      -0.00148402       2.71464053       2.71404614       0.00000000
Si       2.71497611       2.71465682       0.00013751       0.00000000
Si      -2.71492791       2.71486859      -0.00037814       0.00000000
Si      -2.71499307      -2.71529606      -0.00037814       0.00000000
Si       2.71491095      -2.71549154      -0.00003438       0.00000000
