10
Lattice="16.28999089631971 0.0 0.0 0.0 16.28999089631971 0.0 0.0 0.0 34.376317263855086" Properties=species:S:1:pos:R:3:initial_magmoms:R:1 pbc="T T T"
Si       1.18475541      -1.37417553       1.49069545       0.00000000
Si      -1.34864910      -1.35617508      -1.36604686       0.00000000
Si       1.37065689       1.35888955      -1.36563434       0.00000000
Si      -1.45837854       1.18594458       1.48574526       0.00000000
Si      -2.71146887       2.69051571       0.00495019       0.00000000
Si       2.72694600       2.69950942       0.01718817       0.00000000
Si       2.71441899      -2.71603170       0.02409781       0.00000000
Si      -2.70088852      -2.73399957       0.00876597       0.00000000
Si      -2.70722370      -0.00131949      -2.72779668       0.00000000
Si       0.00819387       2.71312623      -2.72796856       0.00000000
