10
Lattice="16.28999089631971 0.0 0.0 0.0 16.28999089631971 0.0 0.0 0.0 34.376317263855086" Properties=species:S:1:pos:R:3:initial_magmoms:R:1 pbc="T T T"
Si      -1.35918940      -1.33770222      -1.37646289       0.00000000
Si       1.35223942       1.37782449      -1.37481282       0.00000000
Si      -1.55488117       1.18560249       1.34909932       0.00000000
Si       1.42065742      -1.46955348       1.45556284       0.00000000
Si      -0.31321760       2.35980198       2.88427776       0.00000000
Si       2.32698415       0.07486884       2.94959280       0.00000000
Si      -2.72126146      -2.69482212      -0.01405992       0.00000000
Si       2.72880958      -2.70373275      -0.01271924       0.00000000
Si      -0.00737448      -2.69796609      -2.73608137       0.00000000
Si       2.70088852       2.73399957      -0.00876597       0.00000000
