10
Lattice="16.28999089631971 0.0 0.0 0.0 16.28999089631971 0.0 0.0 0.0 34.376317263855086" Properties=species:S:1:pos:R:3:initial_magmoms:R:1 pbc="T T T"
Si       1.01704986       1.77629159       1.22864464       0.00000000
Si       1.45837854      -1.18594458      -1.48574526       0.00000000
Si      -1.25309033       1.50457113      -1.48079507       0.00000000
Si      -1.55572758      -1.56014217       1.40729846       0.00000000
Si       2.64313395      -2.56012011       0.00495019       0.00000000
Si       2.40011973       0.49052678       2.82769431       0.00000000
Si       0.10972944      -2.54211966      -2.85179212       0.00000000
Si      -2.69093600       2.73058586      -0.06088049       0.00000000
Si      -2.60137358       0.17261200      -2.85547039       0.00000000
Si      -0.93185316       3.51731141       1.31331356       0.00000000
