10
Lattice="16.28999089631971 0.0 0.0 0.0 16.28999089631971 0.0 0.0 0.0 34.376317263855086" Properties=species:S:1:pos:R:3:initial_magmoms:R:1 pbc="T T T"
Si      -0.90632673      -1.54442232      -1.49402996       0.00000000
Si      -2.03701563       0.39022695       1.23108536       0.00000000
Si       1.26651492      -0.43666974       2.00658114       0.00000000
Si       1.55865978       1.28495520      -1.46766331       0.00000000
Si      -2.64020175       2.28493314      -0.06531504       0.00000000
Si      -2.32698415      -0.07486884      -2.94959280       0.00000000
Si      -3.20286812      -1.71659133       1.22647893       0.00000000
Si       2.79028152       2.66463675       0.08721277       0.00000000
Si      -2.03929623      -3.28256532      -0.23857178       0.00000000
Si       3.07825614       1.19601180       2.04852027       0.00000000
