10
Lattice="16.28999089631971 0.0 0.0 0.0 16.28999089631971 0.0 0.0 0.0 34.376317263855086" Properties=species:S:1:pos:R:3:initial_magmoms:R:1 pbc="T T T"
Si      -0.09046977       0.09642051       2.36230747       0.00000000
Si      -0.60318612       1.89470619      -1.29640040       0.00000000
Si      -1.16585249      -2.10681828      -0.00460643       0.00000000
Si       2.03701563      -0.39022695      -1.23108536       0.00000000
Si      -3.14918999      -0.64873296      -1.23682621       0.00000000
Si      -1.84484969       0.72050670      -2.83157884       0.00000000
Si       3.30353055      -0.82689669       0.77549577       0.00000000
Si       1.13068890      -1.93464927      -2.72511532       0.00000000
Si       2.00720493      -0.91813698       2.85839238       0.00000000
Si      -2.57630327       2.68027515      -0.15496852       0.00000000
