10
Lattice="16.28999089631971 0.0 0.0 0.0 16.28999089631971 0.0 0.0 0.0 34.376317263855086" Properties=species:S:1:pos:R:3:initial_magmoms:R:1 pbc="T T T"
Si       0.90882887      -1.74601107       1.30045681       0.00000000
Si       0.88414952       1.99015649       0.95518089       0.00000000
Si       0.33104375       0.12463479      -2.36509195       0.00000000
Si      -1.83213371       0.69545268       1.40128260       0.00000000
Si      -0.14698793       1.37577195       2.97822829       0.00000000
Si      -2.46421829       2.45116349       0.02368530       0.00000000
Si       0.30440146      -0.89884962       3.45667814       0.00000000
Si       3.22283966      -1.49574780       1.05782863       0.00000000
Si       0.34541153      -2.09266227      -3.08940136       0.00000000
Si      -0.47279933       3.74841764      -0.11932026       0.00000000
