10
Lattice="16.28999089631971 0.0 0.0 0.0 16.28999089631971 0.0 0.0 0.0 34.376317263855086" Properties=species:S:1:pos:R:3:initial_magmoms:R:1 pbc="T T T"
Si      -0.68437548       0.02593368       2.21971442       0.00000000
Si       1.93989465       1.29121056      -0.37339577       0.00000000
Si      -1.81254269       0.76680288      -1.32073885       0.00000000
Si       0.42049377      -2.22967746      -0.77092372       0.00000000
Si       2.01963420      -1.55779641      -2.40163400       0.00000000
Si       3.40693947      -0.47009682      -0.84878612       0.00000000
Si      -1.20811527      -0.08035857      -3.47696018       0.00000000
Si      -2.31686154      -1.77608241       2.27732916       0.00000000
Si      -1.15707870       2.38259169       2.69967683       0.00000000
Si       1.10589552       0.16990470      -3.71958836       0.00000000
