10
Lattice="10.86 0.0 0.0 0.0 10.86 0.0 0.0 0.0 10.86" Properties=species:S:1:pos:R:3:initial_magmoms:R:1 pbc="T T T"
Si      -1.25135436       1.24276410      -1.48714668       0.00000000
Si       1.35828192       1.23874590       1.43989482       0.00000000
Si       1.35828192      -1.47625410      -1.27510518       0.00000000
Si      -1.35671808      -1.47625410       1.43989482       0.00000000
Si      -2.39414130       2.53070580       0.22596402       0.00000000
Si       2.51717424      -0.07315296      -2.57972784       0.00000000
Si       0.00078192       2.59624590       2.79739482       0.00000000
Si       2.92139430       2.49357546       0.25893498       0.00000000
Si       0.00078192      -2.83375410      -2.63260518       0.00000000
Si      -2.71421808      -0.11875410       2.79739482       0.00000000
