10
Lattice="16.28999089631971 0.0 0.0 0.0 16.28999089631971 0.0 0.0 0.0 34.281931910070035" Properties=species:S:1:pos:R:3:initial_magmoms:R:1 pbc="T T T"
Si       1.48313934       1.33121880       1.22191330       0.00000000
Si      -0.83719197       1.35244467      -1.72338766       0.00000000
Si      -1.37067970      -1.57815891       1.12334240       0.00000000
Si       0.06335181       0.07885989      -3.48763971       0.00000000
Si      -0.01246185       2.50157385       2.66394243       0.00000000
Si      -0.11414403      -2.20731781      -3.00529266       0.00000000
Si       2.70161505      -0.21475107       2.64216311       0.00000000
Si      -2.73851909      -0.22278204       2.64376064       0.00000000
Si      -3.28617260       1.04128938      -1.86881170       0.00000000
Si      -0.02490741      -2.92943485       2.64075755       0.00000000
