10
Lattice="16.28999089631971 0.0 0.0 0.0 16.28999089631971 0.0 0.0 0.0 34.281931910070035" Properties=species:S:1:pos:R:3:initial_magmoms:R:1 pbc="T T T"
Si      -0.00689067       0.38498157       2.33750390       0.00000000
Si      -0.24707043      -2.39045976      -0.05467971       0.00000000
Si       0.20432547       0.92483217      -2.23830287       0.00000000
Si       2.24166690       1.07729028      -0.60291667       0.00000000
Si       1.76528214      -1.47957183       2.46562995       0.00000000
Si       2.26515708      -0.21281256      -2.63724193       0.00000000
Si       0.94312584       3.13828479      -1.94529503       0.00000000
Si       1.81866447      -3.36417822      -0.42084523       0.00000000
Si      -1.71701813      -3.09174426      -1.76507481       0.00000000
Si      -1.87068333      -0.50808510       3.53248564       0.00000000
