10
Lattice="16.28999089631971 0.0 0.0 0.0 16.28999089631971 0.0 0.0 0.0 34.281931910070035" Properties=species:S:1:pos:R:3:initial_magmoms:R:1 pbc="T T T"
Si       1.27301463      -1.36542684       1.51128210       0.00000000
Si      -0.89638983      -1.88714667      -1.23586575       0.00000000
Si       1.30712589       1.45595947      -1.47237693       0.00000000
Si      -1.43980794       1.34264623       1.48696249       0.00000000
Si       2.57987988      -2.76677409       0.11915378       0.00000000
Si       2.69612532       2.70686857       0.06196463       0.00000000
Si      -2.75009409      -2.70583320       0.05065158       0.00000000
Si       2.93210226       0.08219771      -2.55325256       0.00000000
Si       2.62524753      -0.01961805       2.88473705       0.00000000
Si      -2.65828365       2.88861610       0.06671268       0.00000000
