10
Lattice="16.28999089631971 0.0 0.0 0.0 16.28999089631971 0.0 0.0 0.0 34.281931910070035" Properties=species:S:1:pos:R:3:initial_magmoms:R:1 pbc="T T T"
Si       1.30505706       1.07893557      -1.59027115       0.00000000
Si      -2.01644136       0.27945495      -1.20003970       0.00000000
Si       0.16990470       1.13476140       2.09678697       0.00000000
Si       0.80886366      -2.23149284       0.36071469       0.00000000
Si      -1.78860942      -1.63268480      -2.56607260       0.00000000
Si       3.37781295       1.07712738      -0.28957964       0.00000000
Si      -0.10345779       3.04170138      -1.86373827       0.00000000
Si      -1.79773182       0.36764901       3.08019902       0.00000000
Si       3.11047776      -2.05888202       0.88629128       0.00000000
Si      -3.87990333      -0.05548374       0.15262325       0.00000000
