10
Lattice="16.28999089631971 0.0 0.0 0.0 16.28999089631971 0.0 0.0 0.0 34.281931910070035" Properties=species:S:1:pos:R:3:initial_magmoms:R:1 pbc="T T T"
Si      -0.40739661      -1.47965328      -1.69795075       0.00000000
Si       1.67477490      -1.05652053       1.22962502       0.00000000
Si       0.64505142       2.07016578      -0.97172190       0.00000000
Si      -1.97128548       0.22825548       1.31341011       0.00000000
Si      -0.17399349       3.24975726       0.85797439       0.00000000
Si       1.03770558       0.01391166       3.23145099       0.00000000
Si      -2.19147741      -0.45976896      -2.72500373       0.00000000
Si       1.45606536      -1.14471459      -3.05061370       0.00000000
Si       1.12254390       2.27569671       2.53768715       0.00000000
Si       1.23515667      -3.33481712       0.71985241       0.00000000
