10
Lattice="16.28999089631971 0.0 0.0 0.0 16.28999089631971 0.0 0.0 0.0 34.281931910070035" Properties=species:S:1:pos:R:3:initial_magmoms:R:1 pbc="T T T"
Si      -1.35648459       1.35668007       1.35893654       0.00000000
Si      -1.34967537      -1.35426915      -1.36848749       0.00000000
Si       1.35760860      -1.36052451       1.35811377       0.00000000
Si       1.35912357       1.34925183      -1.39279340       0.00000000
Si       0.14592582      -2.52462420      -2.81051663       0.00000000
Si      -0.15561837       2.68055208      -2.73519232       0.00000000
Si       2.71404432       2.71340901      -0.00459378       0.00000000
Si       0.00030951       2.71257822       2.71626183       0.00000000
Si      -2.71749454       2.71155195       0.00514229       0.00000000
Si      -2.71423491      -0.00218286       2.71591901       0.00000000
