10
Lattice="16.28999089631971 0.0 0.0 0.0 16.28999089631971 0.0 0.0 0.0 34.281931910070035" Properties=species:S:1:pos:R:3:initial_magmoms:R:1 pbc="T T T"
Si      -1.35557235      -1.35588186       1.35567976       0.00000000
Si       1.35759231      -1.35760860      -1.35773667       0.00000000
Si      -1.35791811       1.35762489      -1.35780524       0.00000000
Si       1.35892809       1.35817875       1.35893654       0.00000000
Si       2.71451673      -2.71435383       0.00037710       0.00000000
Si      -2.71490769      -2.71438641      -0.00010285       0.00000000
Si      -2.71480995       2.71489140      -0.00010285       0.00000000
Si       2.71575477       0.00076563      -2.71399922       0.00000000
Si      -2.71471221       0.00172674      -2.71513052       0.00000000
Si       2.71529865       2.71489140       0.00058279       0.00000000
