10
Lattice="16.28999089631971 0.0 0.0 0.0 16.28999089631971 0.0 0.0 0.0 34.281931910070035" Properties=species:S:1:pos:R:3:initial_magmoms:R:1 pbc="T T T"
Si       1.34917038      -1.35589815       1.36133628       0.00000000
Si       1.35540945       1.35674523      -1.35588545       0.00000000
Si      -1.35874890      -1.35876519      -1.35619398       0.00000000
Si      -1.35853713       1.35671265       1.35993072       0.00000000
Si       2.71326240      -0.00151497      -2.71369068       0.00000000
Si       2.71393029       2.71318095       0.00236545       0.00000000
Si      -0.00151497       2.71349046      -2.71399922       0.00000000
Si      -0.00188964      -2.71580364      -2.71362212       0.00000000
Si      -2.71467963       2.71521720      -0.00058279       0.00000000
Si      -2.71611315      -0.00133578      -2.71396494       0.00000000
