10
Lattice="16.28999089631971 0.0 0.0 0.0 16.28999089631971 0.0 0.0 0.0 34.281931910070035" Properties=species:S:1:pos:R:3:initial_magmoms:R:1 pbc="T T T"
Si       1.35557235       1.35588186      -1.35567976       0.00000000
Si      -1.35933534      -1.35850455      -1.35578260       0.00000000
Si       1.35614250      -1.35850455       1.36051351       0.00000000
Si      -1.36063854       1.35607734       1.35886798       0.00000000
Si       2.71316466      -0.00172674      -2.71341643       0.00000000
Si      -0.00234576       2.71350675      -2.71348499       0.00000000
Si       2.71450044       2.71406061       0.00325679       0.00000000
Si      -2.70524609       0.01252701       2.72407811       0.00000000
Si       2.71467963      -2.71521720       0.00058279       0.00000000
Si      -0.00143352      -2.71655298      -2.71338215       0.00000000
