10
Lattice="16.28999089631971 0.0 0.0 0.0 16.28999089631971 0.0 0.0 0.0 34.281931910070035" Properties=species:S:1:pos:R:3:initial_magmoms:R:1 pbc="T T T"
Si       2.25898317      -0.61204788      -0.23685400       0.00000000
Si      -0.19448631       1.51762527       1.93021097       0.00000000
Si      -0.70332075      -2.33454434       0.74172429       0.00000000
Si       1.09480203      -1.24875882      -2.92483322       0.00000000
Si       2.93149953      -0.19271070       1.97686871       0.00000000
Si       2.96668593       0.98328069      -1.81423513       0.00000000
Si       0.05836707      -3.50051642      -1.16181532       0.00000000
Si      -1.92226724       1.64877606      -2.87200473       0.00000000
Si       2.31163245      -2.75708413      -1.32359185       0.00000000
Si       2.04235875       1.80248850       2.88064378       0.00000000
