10
Lattice="16.28999089631971 0.0 0.0 0.0 16.28999089631971 0.0 0.0 0.0 34.281931910070035" Properties=species:S:1:pos:R:3:initial_magmoms:R:1 pbc="T T T"
Si      -2.07940221       0.95579946       0.66037322       0.00000000
Si       0.55462563      -0.00635310      -2.32099093       0.00000000
Si       1.00134630      -1.08217728       1.89644325       0.00000000
Si      -1.96641477      -1.59930333       0.00589650       0.00000000
Si       1.38855960       2.06347059      -0.95399813       0.00000000
Si      -0.51753330       3.69273123      -0.96034030       0.00000000
Si       2.66087376       2.66927940       1.12348810       0.00000000
Si      -0.86763798       1.26016182      -3.81050743       0.00000000
Si       1.57310901      -3.71211633      -0.81988714       0.00000000
Si       0.47555397       1.20114315       3.93813913       0.00000000
