10
Lattice="16.28999089631971 0.0 0.0 0.0 16.28999089631971 0.0 0.0 0.0 34.281931910070035" Properties=species:S:1:pos:R:3:initial_magmoms:R:1 pbc="T T T"
Si       1.14575715       1.62199530      -1.28437330       0.00000000
Si      -0.55037394       1.09006164       2.04481554       0.00000000
Si      -2.24103159      -0.66313332      -0.53335859       0.00000000
Si       1.40851485      -1.96276581       0.27346712       0.00000000
Si      -1.91298357      -2.76224643       0.66369857       0.00000000
Si       3.29483169       1.28936979      -0.30473226       0.00000000
Si       0.10345779      -3.04170138       1.86373827       0.00000000
Si       0.12671991       3.69813951      -0.68282790       0.00000000
Si      -0.49982607       3.41931987       1.54755584       0.00000000
Si      -3.70856511       0.83315205       0.68197085       0.00000000
