10
Lattice="16.28999089631971 0.0 0.0 0.0 16.28999089631971 0.0 0.0 0.0 34.281931910070035" Properties=species:S:1:pos:R:3:initial_magmoms:R:1 pbc="T T T"
Si      -2.12786496      -0.79884531       0.44329991       0.00000000
Si       0.79571763      -1.03555530      -1.93381058       0.00000000
Si       1.32972012      -0.77998149       1.76946290       0.00000000
Si       0.26104725       2.33186463      -0.54103775       0.00000000
Si       3.04523631      -1.75829373       0.42177084       0.00000000
Si       2.11212882       1.30438917       2.57793416       0.00000000
Si      -2.54361834       0.30356415       2.53371044       0.00000000
Si       3.09826026      -0.62486811      -1.73600372       0.00000000
Si       2.36705103       2.68812693       0.46085227       0.00000000
Si      -3.42440235       0.17521524      -1.23641285       0.00000000
