10
Lattice="16.28999089631971 0.0 0.0 0.0 16.28999089631971 0.0 0.0 0.0 34.281931910070035" Properties=species:S:1:pos:R:3:initial_magmoms:R:1 pbc="T T T"
Si       2.08512000      -0.96459606      -0.36475996       0.00000000
Si      -0.67820157      -0.49287024       2.20710629       0.00000000
Si      -0.93429666      -1.26964260      -1.81385803       0.00000000
Si      -0.21400173       2.38972671       0.23020330       0.00000000
Si       3.41073504       0.06804333       1.18300157       0.00000000
Si      -2.45835648       2.40104826       1.12043701       0.00000000
Si      -2.83380840       0.36738837       2.33922893       0.00000000
Si       0.59865750      -0.96650199      -3.56093482       0.00000000
Si       2.71166598      -0.68577642      -2.59514370       0.00000000
Si       2.03457213      -3.29385429       0.13249974       0.00000000
