10
Lattice="16.28999089631971 0.0 0.0 0.0 16.28999089631971 0.0 0.0 0.0 34.281931910070035" Properties=species:S:1:pos:R:3:initial_magmoms:R:1 pbc="T T T"
Si       1.48375184      -1.65833082      -0.49571701       0.00000000
Si      -1.70337755       0.05043710      -1.58303765       0.00000000
Si       1.18979879       2.00295161      -0.43483227       0.00000000
Si      -1.01189407      -0.22922541       2.13549130       0.00000000
Si       0.65390666       2.91585950       1.65729236       0.00000000
Si       2.11881749      -0.68990661      -2.61513007       0.00000000
Si      -1.39215710       2.08137167       2.37268812       0.00000000
Si      -2.14152968       2.30304599      -1.57131323       0.00000000
Si       0.19201837      -3.64312071      -0.30274391       0.00000000
Si      -3.38861063      -1.22053707      -0.68930719       0.00000000
