10
Lattice="16.28999089631971 0.0 0.0 0.0 16.28999089631971 0.0 0.0 0.0 34.281931910070035" Properties=species:S:1:pos:R:3:initial_magmoms:R:1 pbc="T T T"
Si       1.35759231       1.35583309      -1.35753098       0.00000000
Si      -1.35715248      -1.35910728      -1.35725672       0.00000000
Si      -1.36058967       1.35792367       1.36020497       0.00000000
Si       1.35651717      -1.36215351       1.36215904       0.00000000
Si      -2.70865233       0.00118917       2.70333753       0.00000000
Si      -2.71399545       2.71389186       0.00061708       0.00000000
Si      -0.00032580       2.71397006      -2.71427348       0.00000000
Si      -2.71412577      -2.71443528       0.00017141       0.00000000
Si       2.71559187       2.71327122       0.00157697       0.00000000
Si       2.71487511      -0.00128691      -2.71403350       0.00000000
