10
Lattice="16.28999089631971 0.0 0.0 0.0 16.28999089631971 0.0 0.0 0.0 34.281931910070035" Properties=species:S:1:pos:R:3:initial_magmoms:R:1 pbc="T T T"
Si      -1.23755130      -0.68357727       1.92133195       0.00000000
Si       2.34561339       0.45242217       0.30380665       0.00000000
Si      -0.95407272       1.80894490      -1.32691720       0.00000000
Si      -0.08964387      -2.00731896      -1.44429860       0.00000000
Si       2.02118175      -0.61719552      -1.78869508       0.00000000
Si       0.71610840       0.88317864      -2.98537514       0.00000000
Si      -2.57712687      -2.20397184       0.71724698       0.00000000
Si      -3.20733810       1.06551261      -1.16514067       0.00000000
Si       2.68356573      -0.11813508       2.59380670       0.00000000
Si      -2.63638989       1.10164383       2.47563681       0.00000000
