10
Lattice="16.28999089631971 0.0 0.0 0.0 16.28999089631971 0.0 0.0 0.0 34.281931910070035" Properties=species:S:1:pos:R:3:initial_magmoms:R:1 pbc="T T T"
Si       0.80853786      -1.30261356       1.81001845       0.00000000
Si      -2.16363780       0.70352016       0.75190603       0.00000000
Si       1.11853656       2.10172670      -0.34172249       0.00000000
Si       0.74585394      -1.52493948      -1.71070364       0.00000000
Si       1.60392969       1.04073782      -2.61807832       0.00000000
Si       2.99146302      -1.60735059      -1.04285695       0.00000000
Si       0.43383528       0.10471212       3.67869332       0.00000000
Si       3.07623618      -1.75045824       1.29479501       0.00000000
Si       0.93002868       3.41514053       1.72770749       0.00000000
Si      -0.07975584      -3.74845932      -1.29386940       0.00000000
