10
Lattice="16.28999089631971 0.0 0.0 0.0 16.28999089631971 0.0 0.0 0.0 34.281931910070035" Properties=species:S:1:pos:R:3:initial_magmoms:R:1 pbc="T T T"
Si       0.33868539      -0.65725263       2.22681841       0.00000000
Si       0.90319905       2.16150381      -0.33376908       0.00000000
Si       0.70861500      -1.57869648      -1.61543410       0.00000000
Si      -2.29957785       0.44259930      -0.42921003       0.00000000
Si      -1.53896517       0.43857567       2.96274906       0.00000000
Si       0.01490535      -0.28434195      -3.43765693       0.00000000
Si      -2.22371532      -0.00979029      -2.78088331       0.00000000
Si      -3.18277278      -0.67432455       1.45297193       0.00000000
Si       3.17089737       1.71365913      -0.84899252       0.00000000
Si       0.44196399      -2.99600793       2.40577020       0.00000000
