10
Lattice="16.28999089631971 0.0 0.0 0.0 16.28999089631971 0.0 0.0 0.0 34.281931910070035" Properties=species:S:1:pos:R:3:initial_magmoms:R:1 pbc="T T T"
Si       0.70198497       0.59608368      -2.10028373       0.00000000
Si      -0.02642238      -2.38037625       0.02615713       0.00000000
Si      -2.06083161       1.13764473       0.39893906       0.00000000
Si      -0.02349018       1.29010284       2.03432526       0.00000000
Si      -2.26515708       0.21281256       2.63724193       0.00000000
Si       1.94904963       0.18811692       2.98568368       0.00000000
Si       1.68148638       2.77842240      -1.61735389       0.00000000
Si      -1.32203124       3.35109735       0.69194690       0.00000000
Si      -0.94182264      -0.51681654      -3.61006086       0.00000000
Si       2.57963553      -0.49974462      -2.83621438       0.00000000
