10
Lattice="16.28999089631971 0.0 0.0 0.0 16.28999089631971 0.0 0.0 0.0 34.281931910070035" Properties=species:S:1:pos:R:3:initial_magmoms:R:1 pbc="T T T"
Si      -0.73880037      -2.21345262      -0.29300784       0.00000000
Si       1.04526414       0.69608540      -2.01036217       0.00000000
Si      -1.64020752       1.21189522       1.22468842       0.00000000
Si       1.29854106      -2.06099451       1.34237836       0.00000000
Si       1.48488237       2.97438200      -1.50058956       0.00000000
Si       1.32203124      -3.35109735      -0.69194690       0.00000000
Si      -0.94312584      -3.13828479       1.94529503       0.00000000
Si       3.00351762      -0.57267495      -2.30930079       0.00000000
Si      -1.46271168       3.49807292       0.74234137       0.00000000
Si      -0.50971410       0.30195144      -3.83577322       0.00000000
