10
Lattice="16.28999089631971 0.0 0.0 0.0 16.28999089631971 0.0 0.0 0.0 34.281931910070035" Properties=species:S:1:pos:R:3:initial_magmoms:R:1 pbc="T T T"
Si      -0.01374957      -2.22015758       0.75886527       0.00000000
Si      -1.90341924       1.09113678       0.86668200       0.00000000
Si       1.96231898       0.94610691       0.95879761       0.00000000
Si      -0.30393672      -0.57640536      -2.36422047       0.00000000
Si      -3.23240631      -0.89881704       0.74480967       0.00000000
Si       1.74212705       0.25808247      -3.07961623       0.00000000
Si      -2.13695268      -2.91847472      -0.04470366       0.00000000
Si      -1.90527630       3.09216780      -0.39002576       0.00000000
Si       0.35334101       3.60235431      -0.96527690       0.00000000
Si       1.57914560       3.27132522       1.01011769       0.00000000
