10
Lattice="16.28999089631971 0.0 0.0 0.0 16.28999089631971 0.0 0.0 0.0 34.281931910070035" Properties=species:S:1:pos:R:3:initial_magmoms:R:1 pbc="T T T"
Si       1.13516865       0.80642505      -1.85136249       0.00000000
Si      -1.52331048       1.95897513      -0.02355170       0.00000000
Si      -0.48539313       1.06098888       2.27635583       0.00000000
Si      -1.19602809      -1.99512005      -1.38262537       0.00000000
Si      -0.85807575      -2.56567730       0.90737468       0.00000000
Si       1.88457381       0.98072805       2.18352031       0.00000000
Si       2.94475959      -0.59258459      -1.07425922       0.00000000
Si      -1.60392969      -1.04073782       2.61807832       0.00000000
Si       2.90760210      -0.92382449       1.25873040       0.00000000
Si       1.38753333      -2.64808841       1.57522137       0.00000000
