10
Lattice="16.28999089631971 0.0 0.0 0.0 16.28999089631971 0.0 0.0 0.0 34.281931910070035" Properties=species:S:1:pos:R:3:initial_magmoms:R:1 pbc="T T T"
Si       0.35336268       2.27791215       0.26170841       0.00000000
Si       1.45015209      -1.30284162      -1.33123672       0.00000000
Si       0.15861573      -1.06945479       2.15907728       0.00000000
Si      -2.07275589       0.00180819      -1.30069151       0.00000000
Si      -0.26733519      -3.13600940       1.17587092       0.00000000
Si      -3.37781295      -1.07712738       0.28957964       0.00000000
Si      -0.18643905       3.25394379      -1.87889089       0.00000000
Si       0.48571893      -1.39186647      -3.46295701       0.00000000
Si      -0.50165055       2.79671607       2.49853716       0.00000000
Si       1.34946360      -3.53948210      -0.55766450       0.00000000
