10
Lattice="16.28999089631971 0.0 0.0 0.0 16.28999089631971 0.0 0.0 0.0 34.281931910070035" Properties=species:S:1:pos:R:3:initial_magmoms:R:1 pbc="T T T"
Si      -0.17749584      -2.28617770       0.48234705       0.00000000
Si      -0.90054378       1.27358478       1.76425205       0.00000000
Si       2.31052473       0.54674127      -0.24110496       0.00000000
Si      -0.69846633       0.76108509      -2.15914584       0.00000000
Si      -0.06335181      -0.07885989       3.48763971       0.00000000
Si      -2.46144669      -2.66453738      -0.01405560       0.00000000
Si       1.27281915       0.53282961      -3.47255595       0.00000000
Si       2.94759405      -0.52369092      -2.24293093       0.00000000
Si       2.39536305       2.80852632      -0.93486881       0.00000000
Si      -3.34952441       0.96242949       1.61882801       0.00000000
