10
Lattice="16.28999089631971 0.0 0.0 0.0 16.28999089631971 0.0 0.0 0.0 34.281931910070035" Properties=species:S:1:pos:R:3:initial_magmoms:R:1 pbc="T T T"
Si      -1.35529542      -1.35765747      -1.35598829       0.00000000
Si       1.35816246      -1.35752715       1.35674250       0.00000000
Si       1.35819504       1.35695700      -1.35735957       0.00000000
Si      -1.35785295       1.35826020       1.35780524       0.00000000
Si      -0.00114030      -2.71519765      -2.70913118       0.00000000
Si      -2.71326240       0.00151497       2.71369068       0.00000000
Si      -2.71515204      -2.71428867       0.00006856       0.00000000
Si       2.71531494      -2.71427727      -0.00010285       0.00000000
Si      -2.71477737       2.71500543      -0.00030854       0.00000000
Si       2.71547784       0.00011403       2.71495911       0.00000000
