10
Lattice="16.28999089631971 0.0 0.0 0.0 16.28999089631971 0.0 0.0 0.0 34.281931910070035" Properties=species:S:1:pos:R:3:initial_magmoms:R:1 pbc="T T T"
Si      -1.35540945      -1.35674523       1.35588545       0.00000000
Si      -1.35692442       1.35674523      -1.35811377       0.00000000
Si       1.35852084       1.35643572       1.35825090       0.00000000
Si       1.35785295      -1.35826020      -1.35780524       0.00000000
Si      -2.71451673       2.71435383      -0.00037710       0.00000000
Si       2.71513575       2.71414206      -0.00041138       0.00000000
Si       2.71236645       0.00171045       2.71708460       0.00000000
Si       0.00123804       2.71511946      -2.71437632       0.00000000
Si      -2.71415835      -2.71551042      -0.00030854       0.00000000
Si       0.00255753      -2.71591767      -2.71379353       0.00000000
