10
Lattice="16.28999089631971 0.0 0.0 0.0 16.28999089631971 0.0 0.0 0.0 34.281931910070035" Properties=species:S:1:pos:R:3:initial_magmoms:R:1 pbc="T T T"
Si       0.17749584       2.28617770      -0.48234705       0.00000000
Si      -2.28395085      -0.37835969      -0.49640265       0.00000000
Si       1.64020752      -1.21189522      -1.22468842       0.00000000
Si       0.11414403       2.20731781       3.00529266       0.00000000
Si      -2.49703904      -0.11900171      -2.84142523       0.00000000
Si       2.48802057       2.83291897      -0.72345201       0.00000000
Si      -0.72304794       3.55976248       1.28190500       0.00000000
Si       0.90140715      -3.42534784      -1.51769626       0.00000000
Si      -3.62661731       0.91864849       0.97364169       0.00000000
Si      -2.79006065      -0.50499977       2.75208647       0.00000000
