10
Lattice="16.28999089631971 0.0 0.0 0.0 16.28999089631971 0.0 0.0 0.0 34.281931910070035" Properties=species:S:1:pos:R:3:initial_magmoms:R:1 pbc="T T T"
Si      -1.14575715      -1.62199530       1.28437330       0.00000000
Si       2.14907454      -0.33262551       0.97964103       0.00000000
Si      -1.01903724       2.07614421       0.60154540       0.00000000
Si      -0.46203327      -0.05694984      -2.35969526       0.00000000
Si      -2.87661852       0.14102253      -2.06236789       0.00000000
Si      -3.13204572       1.79541864      -0.36424573       0.00000000
Si       2.61000009       1.80983529       1.82170860       0.00000000
Si       0.69124986       1.98436635      -3.06628055       0.00000000
Si      -1.64558322       1.79732457       2.83192913       0.00000000
Si      -1.69613109      -0.53193366       3.32918883       0.00000000
