10
Lattice="16.28999089631971 0.0 0.0 0.0 16.28999089631971 0.0 0.0 0.0 34.281931910070035" Properties=species:S:1:pos:R:3:initial_magmoms:R:1 pbc="T T T"
Si      -0.35336268      -2.27791215      -0.26170841       0.00000000
Si       2.24459910       0.65065518      -0.23877379       0.00000000
Si      -0.53980173       0.97603164      -2.14059931       0.00000000
Si      -0.85501323       0.51880392       2.23682874       0.00000000
Si      -0.07887618       3.11849244      -1.29853174       0.00000000
Si      -2.42611857      -2.27610396      -1.56239992       0.00000000
Si       2.99665953      -0.35409573      -2.18609146       0.00000000
Si       2.18494512       2.95425666      -0.73346234       0.00000000
Si       3.24742779       0.44344638       1.84303197       0.00000000
Si      -3.15755586       0.10811673       2.03902189       0.00000000
