10
Lattice="16.28999089631971 0.0 0.0 0.0 16.28999089631971 0.0 0.0 0.0 34.281931910070035" Properties=species:S:1:pos:R:3:initial_magmoms:R:1 pbc="T T T"
Si      -0.78240870      -2.08437066      -0.80847125       0.00000000
Si      -1.20410793       0.71666226       1.95170576       0.00000000
Si       0.25492221       1.38373776      -2.11708189       0.00000000
Si      -2.11212882      -1.30438917      -2.57793416       0.00000000
Si      -2.66683590       2.40544656       0.94460488       0.00000000
Si      -1.85108157       1.02747546      -3.11897191       0.00000000
Si       0.93310749      -3.06268290      -2.15616331       0.00000000
Si       0.29831877       1.68407649       3.46483707       0.00000000
Si       1.58433282       3.05281116       2.00247733       0.00000000
Si       1.68217056       0.24153183      -3.77574553       0.00000000
