10
Lattice="16.28999089631971 0.0 0.0 0.0 16.28999089631971 0.0 0.0 0.0 34.281931910070035" Properties=species:S:1:pos:R:3:initial_magmoms:R:1 pbc="T T T"
Si       1.93121208       0.45872640       1.35681106       0.00000000
Si       1.03203666      -0.57317994      -2.10806574       0.00000000
Si      -0.93608856       2.21576580      -0.29897290       0.00000000
Si      -1.15328313      -2.04131619       0.70658529       0.00000000
Si       2.18979954       1.56390516      -2.08934779       0.00000000
Si      -0.69124986      -1.98436635       3.06628055       0.00000000
Si      -2.64171672       1.81089414      -1.91985782       0.00000000
Si       3.18863718       1.96641477       0.09862917       0.00000000
Si       0.74523492       3.38198319      -1.55348661       0.00000000
Si       3.07444428      -1.67405814      -1.58176922       0.00000000
