10
Lattice="16.28999089631971 0.0 0.0 0.0 16.28999089631971 0.0 0.0 0.0 34.281931910070035" Properties=species:S:1:pos:R:3:initial_magmoms:R:1 pbc="T T T"
Si      -2.22281937       0.68277906       0.01834084       0.00000000
Si       0.44049789      -1.75466106       1.48156308       0.00000000
Si       1.06385103       1.79124840       1.08152699       0.00000000
Si       0.45295974      -1.12140360      -2.04961501       0.00000000
Si      -3.18853944      -1.48835214       0.26139988       0.00000000
Si       0.84942576       1.08227502       3.35092359       0.00000000
Si       3.34005273       1.52823006       0.60257385       0.00000000
Si       1.71038484       0.38628477      -3.30779689       0.00000000
Si      -0.20274534      -1.02905559       3.59723941       0.00000000
Si       2.70431919      -1.91889684       2.04663248       0.00000000
