10
Lattice="16.28999089631971 0.0 0.0 0.0 16.28999089631971 0.0 0.0 0.0 34.281931910070035" Properties=species:S:1:pos:R:3:initial_magmoms:R:1 pbc="T T T"
Si      -1.29984845       1.39937616       1.43299241       0.00000000
Si       1.42240207      -1.30062618       1.42804553       0.00000000
Si      -1.83374805      -0.98749980      -1.37295584       0.00000000
Si       0.84591527       1.92502188      -1.48368654       0.00000000
Si       1.14428291       0.00765630      -3.12061542       0.00000000
Si       2.61645907       2.73419505       0.06134070       0.00000000
Si      -2.68356477       2.70599706       0.01165244       0.00000000
Si       2.91800327      -2.47098123      -0.01398361       0.00000000
Si      -2.65465002       0.05124834       2.79718437       0.00000000
Si       0.05616792      -2.66390370       2.79166498       0.00000000
