10
Lattice="16.28999089631971 0.0 0.0 0.0 16.28999089631971 0.0 0.0 0.0 34.281931910070035" Properties=species:S:1:pos:R:3:initial_magmoms:R:1 pbc="T T T"
Si       0.64324323      -0.72560547      -2.11567633       0.00000000
Si       0.56314530      -1.15450488       1.95787651       0.00000000
Si      -2.28672504       0.29452320       0.44230573       0.00000000
Si       1.05217110       2.11133061      -0.24631582       0.00000000
Si       2.90706453      -0.88984125      -1.55060693       0.00000000
Si      -0.34836165       3.24180774       1.22006036       0.00000000
Si      -2.39000364       2.63327850       0.26335395       0.00000000
Si      -0.13289382      -3.32529399       1.41968416       0.00000000
Si      -0.86410305      -0.01229895       3.61654015       0.00000000
Si       0.20274534       1.02905559      -3.59723941       0.00000000
