10
Lattice="16.28999089631971 0.0 0.0 0.0 16.28999089631971 0.0 0.0 0.0 34.281931910070035" Properties=species:S:1:pos:R:3:initial_magmoms:R:1 pbc="T T T"
Si       1.35743457       1.35746794       1.35708532       0.00000000
Si      -1.35717080      -1.35784930       1.35729101       0.00000000
Si      -1.35402683       1.35724966      -1.36198763       0.00000000
Si       1.35769521      -1.35903847      -1.36006784       0.00000000
Si       2.71492914       2.71447870       0.00013713       0.00000000
Si      -2.71490972      -0.00062875       2.71502768       0.00000000
Si      -2.71551245       2.71462531       0.00013713       0.00000000
Si      -0.00006519       2.71504885       2.71513052       0.00000000
Si       0.00032358      -2.71558822       2.71513052       0.00000000
Si       2.71567848      -0.00070466       2.71516481       0.00000000
