10
Lattice="16.28999089631971 0.0 0.0 0.0 16.28999089631971 0.0 0.0 0.0 34.281931910070035" Properties=species:S:1:pos:R:3:initial_magmoms:R:1 pbc="T T T"
Si      -1.35462753       1.35495358       1.35986215       0.00000000
Si       1.35347094      -1.35612621       1.36116487       0.00000000
Si       1.35710361       1.35625944      -1.35742813       0.00000000
Si      -1.35754344      -1.35839052      -1.35735957       0.00000000
Si      -2.71194291      -2.71366965      -0.00006856       0.00000000
Si       2.71423980       2.71396843      -0.00051423       0.00000000
Si      -2.71479366       2.71395540       0.00102846       0.00000000
Si      -0.00024435       2.71466564      -2.71499340       0.00000000
Si       2.71484253      -0.00096111      -2.71516481       0.00000000
Si      -2.71551042      -0.00060273      -2.71458201       0.00000000
