10
Lattice="16.28999089631971 0.0 0.0 0.0 16.28999089631971 0.0 0.0 0.0 34.281931910070035" Properties=species:S:1:pos:R:3:initial_magmoms:R:1 pbc="T T T"
Si       1.34296389       1.34853507      -1.38608785       0.00000000
Si      -1.37099898      -1.37086866      -1.38852186       0.00000000
Si       1.55743803      -1.19817837       1.43781931       0.00000000
Si      -1.26255645       1.38481290       1.58598590       0.00000000
Si      -2.70428661       2.69052156      -0.00596506       0.00000000
Si       2.70228294       2.70923877       0.01127876       0.00000000
Si       2.70169650      -2.72556135      -0.01700385       0.00000000
Si      -2.73294072      -2.69703756      -0.02348314       0.00000000
Si       2.70511740      -0.01055592      -2.74666992       0.00000000
Si      -0.01050705       2.70466128      -2.74725271       0.00000000
