10
Lattice="16.28999089631971 0.0 0.0 0.0 16.28999089631971 0.0 0.0 0.0 34.281931910070035" Properties=species:S:1:pos:R:3:initial_magmoms:R:1 pbc="T T T"
Si       1.33915203       1.36909330      -1.38142550       0.00000000
Si      -1.17421578       1.58369004       1.30974194       0.00000000
Si      -1.38008880      -1.34732961      -1.37967712       0.00000000
Si       1.44173016      -1.30570866       1.59195096       0.00000000
Si       2.70428661      -2.69052156       0.00596506       0.00000000
Si       2.68626987       2.71979536       0.01251291       0.00000000
Si      -2.74015719      -2.68209963       0.01186156       0.00000000
Si       2.69377956       0.01413972      -2.74128765       0.00000000
Si      -0.01816335      -2.69952993      -2.74135622       0.00000000
Si      -2.73036690       2.73614563      -0.00918756       0.00000000
