10
Lattice="16.28999089631971 0.0 0.0 0.0 16.28999089631971 0.0 0.0 0.0 34.281931910070035" Properties=species:S:1:pos:R:3:initial_magmoms:R:1 pbc="T T T"
Si      -0.08477316       0.14310765      -2.33765196       0.00000000
Si       0.82438803      -2.18388627       0.29674457       0.00000000
Si      -2.26769832       0.44784468       0.51522344       0.00000000
Si       1.27601199       1.62430848       1.17593949       0.00000000
Si       3.13222491       0.91466721      -1.19784565       0.00000000
Si       1.43529561       1.86737157      -2.65414293       0.00000000
Si      -0.34078680       2.02778117       2.90947491       0.00000000
Si      -3.17089737      -1.71365913       0.84899252       0.00000000
Si      -3.07623618       1.75045824      -1.29479501       0.00000000
Si      -2.33038224       0.22551876      -3.00549865       0.00000000
