10
Lattice="16.28999089631971 0.0 0.0 0.0 16.28999089631971 0.0 0.0 0.0 34.281931910070035" Properties=species:S:1:pos:R:3:initial_magmoms:R:1 pbc="T T T"
Si       2.30161410       0.17261081       0.52557659       0.00000000
Si       0.37470258      -1.40732568      -1.86867487       0.00000000
Si      -1.08796023      -0.94791510       1.91077311       0.00000000
Si      -0.80886366       2.23149284      -0.36071469       0.00000000
Si       2.41215804      -1.41248961       2.17193301       0.00000000
Si      -0.43383528      -0.10471212      -3.67869332       0.00000000
Si      -3.04621371       0.32084525       2.20971172       0.00000000
Si       2.72756502       2.23916543       1.50878295       0.00000000
Si      -0.63895896       3.36625424       1.73607228       0.00000000
Si       0.71501697      -0.86420079       3.70234787       0.00000000
