10
Lattice="16.28999089631971 0.0 0.0 0.0 16.28999089631971 0.0 0.0 0.0 34.281931910070035" Properties=species:S:1:pos:R:3:initial_magmoms:R:1 pbc="T T T"
Si       1.26105777      -0.52520589       1.90947039       0.00000000
Si       0.46674108       1.52399466      -1.73631226       0.00000000
Si      -2.05495092       0.66730356       0.98636030       0.00000000
Si       0.36214299      -1.71712238      -1.60429246       0.00000000
Si      -1.64579499      -2.76484468      -0.99781047       0.00000000
Si      -3.24123759       0.89410923      -1.04148567       0.00000000
Si      -1.72739160       1.84479363      -2.53720720       0.00000000
Si       1.98418716      -3.07862171      -0.41652571       0.00000000
Si      -2.70598077      -1.19153205       2.25996906       0.00000000
Si      -1.68295248      -3.09608459       1.33517915       0.00000000
