10
Lattice="16.28999089631971 0.0 0.0 0.0 16.28999089631971 0.0 0.0 0.0 34.281931910070035" Properties=species:S:1:pos:R:3:initial_magmoms:R:1 pbc="T T T"
Si      -1.35545832       1.35632169      -1.36020497       0.00000000
Si       1.36067505      -1.35742941      -1.36006784       0.00000000
Si      -1.34271954      -1.37829690       1.35732529       0.00000000
Si       1.37033991       1.37039625       1.36308466       0.00000000
Si      -2.72934063      -0.08829180       2.69103031       0.00000000
Si      -2.71008585      -2.71572219       0.00010285       0.00000000
Si      -2.71274112       2.71464705       0.00137128       0.00000000
Si       2.71255283      -2.71617831       0.00233117       0.00000000
Si       2.71494746       2.71394658      -0.00212548       0.00000000
Si      -2.71360449      -0.00136836      -2.71705031       0.00000000
