10
Lattice="16.28999089631971 0.0 0.0 0.0 16.28999089631971 0.0 0.0 0.0 34.281931910070035" Properties=species:S:1:pos:R:3:initial_magmoms:R:1 pbc="T T T"
Si      -1.00282869       0.20720880      -2.08180576       0.00000000
Si       0.00185706      -2.00103102       1.25670776       0.00000000
Si       2.25861732       0.51018651      -0.57525114       0.00000000
Si      -1.03671189       1.99238103       0.95224975       0.00000000
Si      -0.08245998       3.38268366      -0.63150782       0.00000000
Si      -0.18539649      -1.03381227       3.47207600       0.00000000
Si       1.90527630      -3.09216780       0.39002576       0.00000000
Si       2.20820954       2.86329330      -0.82194406       0.00000000
Si      -1.06248267       2.51081028      -2.57649431       0.00000000
Si       3.48442190       0.17915742       1.40014345       0.00000000
