10
Lattice="16.28999089631971 0.0 0.0 0.0 16.28999089631971 0.0 0.0 0.0 34.281931910070035" Properties=species:S:1:pos:R:3:initial_magmoms:R:1 pbc="T T T"
Si       1.35026181       1.44309852      -1.39246429       0.00000000
Si      -0.96902694       0.74619603       2.12592663       0.00000000
Si       1.53668457      -1.62507411       1.03397793       0.00000000
Si      -1.55950686      -1.30939020      -1.45016081       0.00000000
Si      -2.12678982      -1.39088907       2.10720869       0.00000000
Si      -0.08438220      -2.49176727       2.63350520       0.00000000
Si       2.49452028      -0.08428446      -2.84728745       0.00000000
Si      -0.20717622       2.64127689      -2.83028360       0.00000000
Si       3.18029670       2.24036370      -0.07432327       0.00000000
Si      -3.39910398      -1.99669788       0.02972245       0.00000000
