10
Lattice="16.28999089631971 0.0 0.0 0.0 16.28999089631971 0.0 0.0 0.0 34.281931910070035" Properties=species:S:1:pos:R:3:initial_magmoms:R:1 pbc="T T T"
Si      -1.15847150       2.07324459      -0.12728888       0.00000000
Si       2.14039197       0.45823770       0.95896902       0.00000000
Si      -1.12931891      -0.99333162       1.96140755       0.00000000
Si       1.27837404      -0.58129236      -2.28859449       0.00000000
Si       3.03930675      -1.00066212      -0.75612271       0.00000000
Si      -3.26128148      -0.99652446       1.03706330       0.00000000
Si      -3.33369053       1.28961414       0.28186620       0.00000000
Si       2.19185208       2.89202886       1.17693366       0.00000000
Si      -0.00887805      -3.02142033       2.33384666       0.00000000
Si      -1.58733181       2.47414149      -2.46353529       0.00000000
