10
Lattice="16.28999089631971 0.0 0.0 0.0 16.28999089631971 0.0 0.0 0.0 34.281931910070035" Properties=species:S:1:pos:R:3:initial_magmoms:R:1 pbc="T T T"
Si      -1.46579212      -0.75028482       1.65777231       0.00000000
Si      -1.12044086       2.02808871      -0.37243912       0.00000000
Si       2.23684506       0.28486323       0.95043281       0.00000000
Si       0.19448631      -1.51762527      -1.93021097       0.00000000
Si      -0.10521711      -2.28915225       2.72904900       0.00000000
Si       3.12598584      -1.71033597       0.04665774       0.00000000
Si       0.00887805       3.02142033      -2.33384666       0.00000000
Si      -2.27524385       1.08409950       2.95829240       0.00000000
Si       2.45346948      -2.12967315      -2.16706497       0.00000000
Si      -1.87687190       2.99845143       1.66068627       0.00000000
