10
Lattice="16.28999089631971 0.0 0.0 0.0 16.28999089631971 0.0 0.0 0.0 34.281931910070035" Properties=species:S:1:pos:R:3:initial_magmoms:R:1 pbc="T T T"
Si       1.26345240       1.53965654      -1.33885558       0.00000000
Si      -1.28353797       1.31475096       1.57337014       0.00000000
Si      -1.17825570      -1.61031537      -1.42744015       0.00000000
Si       1.43185842      -1.38952071       1.54600629       0.00000000
Si      -2.55375072      -2.69475696       0.17878037       0.00000000
Si      -2.75667525       2.51369591       0.19585279       0.00000000
Si       2.79697738       2.67381521       0.03769301       0.00000000
Si      -2.64039723      -0.03837924       2.94561494       0.00000000
Si       0.07902279       2.67535135       2.94386656       0.00000000
Si       2.87991140      -2.81360880       0.16215020       0.00000000
