10
Lattice="16.28999089631971 0.0 0.0 0.0 16.28999089631971 0.0 0.0 0.0 34.281931910070035" Properties=species:S:1:pos:R:3:initial_magmoms:R:1 pbc="T T T"
Si       1.35812229       1.35358497      -1.39568679       0.00000000
Si      -1.35931905      -1.36070370      -1.39736661       0.00000000
Si       1.50330768      -1.31095404       1.33432210       0.00000000
Si      -1.35578412       1.40002485       1.66692559       0.00000000
Si       2.39311081       0.59047992       2.71297076       0.00000000
Si      -2.70228294      -2.70923877      -0.01127876       0.00000000
Si      -2.72029968       2.70107815      -0.00473091       0.00000000
Si       2.70114820       2.72655082      -0.02492298       0.00000000
Si       2.73998030      -2.72520297      -0.04192683       0.00000000
Si       0.00144981       2.70939094      -2.75904570       0.00000000
