10
Lattice="16.28999089631971 0.0 0.0 0.0 16.28999089631971 0.0 0.0 0.0 34.281931910070035" Properties=species:S:1:pos:R:3:initial_magmoms:R:1 pbc="T T T"
Si      -1.52006877      -1.72426392       0.31649097       0.00000000
Si      -1.02302829       1.90455254       0.92478991       0.00000000
Si       0.03715749       0.33123990      -2.33298962       0.00000000
Si       1.69692930      -0.95270436       1.45629728       0.00000000
Si      -2.90760210       0.92382449      -1.25873040       0.00000000
Si       3.38216238       0.31826980       0.56256682       0.00000000
Si      -1.43529561      -1.86737157       2.65414293       0.00000000
Si      -0.73757862      -3.25435104      -1.29308091       0.00000000
Si       0.32241168      -1.88949339      -3.08030187       0.00000000
Si      -0.05859513       1.99357739       3.05651019       0.00000000
