10
Lattice="16.28999089631971 0.0 0.0 0.0 16.28999089631971 0.0 0.0 0.0 34.281931910070035" Properties=species:S:1:pos:R:3:initial_magmoms:R:1 pbc="T T T"
Si      -0.55529352       1.76668308      -1.40662273       0.00000000
Si      -1.05604812      -2.05570026      -0.31439977       0.00000000
Si       2.05395301      -1.05083532      -0.37840418       0.00000000
Si      -0.38947761       0.84403377       2.15582049       0.00000000
Si       1.90881889       0.45688563       2.92949556       0.00000000
Si       2.85463421      -1.46101752       1.78149587       0.00000000
Si       0.65640622       1.20901122      -3.40142090       0.00000000
Si      -3.33311319      -1.62404784      -0.35180138       0.00000000
Si       0.29840022       3.84963651      -0.66506985       0.00000000
Si      -1.70344530      -0.48210255       3.55856937       0.00000000
