10
Lattice="16.28999089631971 0.0 0.0 0.0 16.28999089631971 0.0 0.0 0.0 34.281931910070035" Properties=species:S:1:pos:R:3:initial_magmoms:R:1 pbc="T T T"
Si      -2.20916835      -0.34324659      -0.67823412       0.00000000
Si      -0.16909020      -2.14837407       0.99019987       0.00000000
Si       1.92325346       0.64905876      -1.27645417       0.00000000
Si      -0.48392703       1.57835439       1.74515700       0.00000000
Si      -3.13562952       1.76098158      -0.62975944       0.00000000
Si      -1.04873391      -1.62152289       3.23316509       0.00000000
Si      -2.25937413      -1.38341196      -2.71022821       0.00000000
Si       3.72720806       0.68352840       0.31998773       0.00000000
Si       1.80586446      -3.33304803       0.79321578       0.00000000
Si       2.60186228      -0.95961132      -2.79877849       0.00000000
