10
Lattice="16.28999089631971 0.0 0.0 0.0 16.28999089631971 0.0 0.0 0.0 34.281931910070035" Properties=species:S:1:pos:R:3:initial_magmoms:R:1 pbc="T T T"
Si       0.92646117      -2.10422817      -0.04847468       0.00000000
Si       0.36849609       0.56721780       2.22674985       0.00000000
Si      -2.18471706       0.09874998      -0.80538588       0.00000000
Si       1.34118828       1.53057582      -1.17755074       0.00000000
Si       0.30493251       2.88057603       2.00223735       0.00000000
Si       2.65170249      -0.18262719       2.37491644       0.00000000
Si       0.24573465       3.55023350      -0.38803740       0.00000000
Si       3.13562952      -1.76098158       0.62975944       0.00000000
Si      -2.74504419      -2.10631329      -1.32869986       0.00000000
Si      -2.29526100       1.68385040      -2.45174229       0.00000000
