10
Lattice="16.28999089631971 0.0 0.0 0.0 16.28999089631971 0.0 0.0 0.0 34.281931910070035" Properties=species:S:1:pos:R:3:initial_magmoms:R:1 pbc="T T T"
Si       0.48392703      -1.57835439      -1.74515700       0.00000000
Si      -2.28320640       0.74984499      -0.14816659       0.00000000
Si       1.02577708       2.15216217      -0.40387567       0.00000000
Si       0.51966729       2.02552208       2.84461345       0.00000000
Si      -1.72524132      -1.92160098      -2.42339112       0.00000000
Si      -1.92204081      -1.12444983       2.75602889       0.00000000
Si      -2.65170249       0.18262719      -2.37491644       0.00000000
Si      -0.56480688      -3.19987728       1.48800809       0.00000000
Si      -0.31688937       3.44917034       1.06616868       0.00000000
Si       0.81268890       2.41152014      -2.74889825       0.00000000
