10
Lattice="16.28999089631971 0.0 0.0 0.0 16.28999089631971 0.0 0.0 0.0 34.281931910070035" Properties=species:S:1:pos:R:3:initial_magmoms:R:1 pbc="T T T"
Si       2.18046537       0.69628347      -0.50675580       0.00000000
Si      -1.22580458       0.33102909      -1.97539458       0.00000000
Si       0.38317338      -2.32521831      -0.05132008       0.00000000
Si      -0.78547448       1.19827611       1.94478080       0.00000000
Si       3.47700276      -0.27777708       1.17295696       0.00000000
Si      -1.27621236       2.68413588      -2.22208750       0.00000000
Si       2.35445886      -2.55347379      -1.36473019       0.00000000
Si      -3.48442190      -0.17915742      -1.40014345       0.00000000
Si      -1.57914560      -3.27132522      -1.01011769       0.00000000
Si      -0.11579258       3.47558553       1.54570461       0.00000000
