10
Lattice="16.28999089631971 0.0 0.0 0.0 16.28999089631971 0.0 0.0 0.0 34.281931910070035" Properties=species:S:1:pos:R:3:initial_magmoms:R:1 pbc="T T T"
Si       0.27989478       2.25882027      -0.45286457       0.00000000
Si       0.81904491      -1.17959148      -1.82969629       0.00000000
Si       1.29653739      -0.97406055       1.67971276       0.00000000
Si      -2.18046537      -0.69628347       0.50675580       0.00000000
Si       0.17399349      -3.24975726      -0.85797439       0.00000000
Si      -1.79729199      -3.02150178       0.45543572       0.00000000
Si       3.42440235      -0.17521524       1.23641285       0.00000000
Si      -1.87571205       3.11907888      -0.32074193       0.00000000
Si      -3.40626995      -0.36525438      -1.46863878       0.00000000
Si       1.65949488       3.27785751       1.20645042       0.00000000
