10
Lattice="16.28999089631971 0.0 0.0 0.0 16.28999089631971 0.0 0.0 0.0 34.281931910070035" Properties=species:S:1:pos:R:3:initial_magmoms:R:1 pbc="T T T"
Si      -1.35749457      -1.35701076       1.35694819       0.00000000
Si       1.35811359       1.35775521       1.35715388       0.00000000
Si       1.35799956      -1.35642432      -1.36161053       0.00000000
Si      -1.35901768       1.35769005      -1.36407883       0.00000000
Si       2.71450044       2.71471221      -0.00109702       0.00000000
Si      -2.71492914      -2.71447870      -0.00013713       0.00000000
Si      -2.71499433       0.00057015       2.71499340       0.00000000
Si       0.00074934      -2.71518336       2.71502768       0.00000000
Si       2.71547784       0.00032580       2.71492483       0.00000000
Si       0.00021177       2.71580364       2.71475342       0.00000000
