10
Lattice="16.28999089631971 0.0 0.0 0.0 16.28999089631971 0.0 0.0 0.0 34.281931910070035" Properties=species:S:1:pos:R:3:initial_magmoms:R:1 pbc="T T T"
Si       1.77054381       0.80917317       1.54502724       0.00000000
Si       0.29836764      -1.91736558      -1.63692888       0.00000000
Si      -1.82122689       1.77534936       0.24647458       0.00000000
Si      -0.84591527      -1.92502188       1.48368654       0.00000000
Si       0.92481588       1.61481141      -2.09157612       0.00000000
Si      -2.14576372      -0.52564572       2.91667895       0.00000000
Si       0.56250999       2.19475170       2.94869830       0.00000000
Si       2.63191014      -1.73742624      -2.08430834       0.00000000
Si      -1.21481372      -1.36378251      -3.40289503       0.00000000
Si      -0.69879702       3.49718607       1.49558924       0.00000000
