10
Lattice="16.28999089631971 0.0 0.0 0.0 16.28999089631971 0.0 0.0 0.0 34.281931910070035" Properties=species:S:1:pos:R:3:initial_magmoms:R:1 pbc="T T T"
Si      -1.35769521       1.35903847       1.36006784       0.00000000
Si       1.35861858      -1.35809730       1.36119915       0.00000000
Si       1.35200484       1.36347603      -1.39067820       0.00000000
Si      -1.35888641      -1.34858394      -1.39978006       0.00000000
Si      -2.71172204       2.71628812      -0.00191979       0.00000000
Si      -2.71273202      -2.71599912      -0.00356532       0.00000000
Si       2.71603170      -2.71318095       0.00068564       0.00000000
Si      -0.00010426      -2.71420722       2.71759883       0.00000000
Si      -2.71486601       0.00118917       2.71735885       0.00000000
Si       2.71523349       2.71709285      -0.00140556       0.00000000
