10
Lattice="16.28999089631971 0.0 0.0 0.0 16.28999089631971 0.0 0.0 0.0 34.281931910070035" Properties=species:S:1:pos:R:3:initial_magmoms:R:1 pbc="T T T"
Si       1.35443205      -1.36001952       1.35650252       0.00000000
Si       1.35651717       1.35709577      -1.35787380       0.00000000
Si      -1.35883773      -1.35778779      -1.35790808       0.00000000
Si      -1.36026236       1.35907470       1.36226189       0.00000000
Si       2.71977840       0.00278559       2.70220623       0.00000000
Si       2.71430496      -2.71283886      -0.00095989       0.00000000
Si       2.71384884       0.00008145      -2.71581616       0.00000000
Si      -2.71555019      -2.71430496       0.00000000       0.00000000
Si       2.71443528       2.71548828      -0.00051423       0.00000000
Si      -0.00157036      -2.71544526      -2.71550763       0.00000000
