10
Lattice="16.28999089631971 0.0 0.0 0.0 16.28999089631971 0.0 0.0 0.0 34.48637585096406" Properties=species:S:1:pos:R:3:initial_magmoms:R:1 pbc="T T T"
Si      -1.36818081      -1.32556289       1.36379898       0.00000000
Si      -1.35423657       1.35905422      -1.35803975       0.00000000
Si       1.36018242      -1.35745871      -1.36007445       0.00000000
Si       1.35796698       1.36454395       1.39418150       0.00000000
Si       0.20510739      -2.49792161       2.61386183       0.00000000
Si      -2.71270854       0.00105977      -2.71628643       0.00000000
Si       0.00198738      -2.71335686      -2.71697615       0.00000000
Si      -2.71435383      -2.71689179       0.00093113       0.00000000
Si       2.71713942      -2.71441571      -0.00334518       0.00000000
Si      -2.71388142       2.71930017       0.00334518       0.00000000
