10
Lattice="16.28999089631971 0.0 0.0 0.0 16.28999089631971 0.0 0.0 0.0 34.48637585096406" Properties=species:S:1:pos:R:3:initial_magmoms:R:1 pbc="T T T"
Si      -0.92029866       1.20497130      -1.83695232       0.00000000
Si      -0.30980648       1.75746294       1.79794821       0.00000000
Si      -0.81120616      -2.23533009       1.05052457       0.00000000
Si       2.09285775      -1.28583486      -1.34669373       0.00000000
Si       0.17019792       0.21618459       3.54865006       0.00000000
Si      -1.88484164      -0.57384783      -3.08122146       0.00000000
Si       3.48897591      -1.08668961       0.79804967       0.00000000
Si       2.14364997      -1.12493853       3.00938630       0.00000000
Si       0.98228700       2.31065505      -3.05314953       0.00000000
Si       0.91575864      -3.11194484       2.46922589       0.00000000
