10
Lattice="16.28999089631971 0.0 0.0 0.0 16.28999089631971 0.0 0.0 0.0 34.48637585096406" Properties=species:S:1:pos:R:3:initial_magmoms:R:1 pbc="T T T"
Si      -1.64349810       0.05988204      -1.77949799       0.00000000
Si      -0.39539088       1.40533830       1.94279107       0.00000000
Si       0.59223924      -2.17943000       0.93892659       0.00000000
Si       2.29597776       0.36245250      -0.80067064       0.00000000
Si       3.25928691      -0.00692325       1.26385741       0.00000000
Si       1.88872776       1.28679597       2.69100790       0.00000000
Si       1.29415905      -3.50330201      -0.99751898       0.00000000
Si      -0.29817216       0.09813096      -3.99083462       0.00000000
Si       2.88927585      -2.26619054       1.63568972       0.00000000
Si      -1.70619831       0.30460671       3.65662696       0.00000000
