10
Lattice="16.28999089631971 0.0 0.0 0.0 16.28999089631971 0.0 0.0 0.0 34.48637585096406" Properties=species:S:1:pos:R:3:initial_magmoms:R:1 pbc="T T T"
Si       2.28411864      -0.11854233       0.74821683       0.00000000
Si      -1.31080743      -1.10073159       1.71383589       0.00000000
Si       0.39539088      -1.40533830      -1.94279107       0.00000000
Si      -0.49469472       2.11828644       1.09211516       0.00000000
Si      -2.74711302       1.24297587      -1.22523265       0.00000000
Si      -1.77404616       1.00170468       2.74346170       0.00000000
Si       2.20304331      -0.80585001       3.00404091       0.00000000
Si       0.98763012      -3.58476830      -1.00386448       0.00000000
Si       1.49428170       3.11316561       1.93220375       0.00000000
Si       3.65467779      -1.41226155      -0.67893366       0.00000000
