10
Lattice="16.28999089631971 0.0 0.0 0.0 16.28999089631971 0.0 0.0 0.0 34.48637585096406" Properties=species:S:1:pos:R:3:initial_magmoms:R:1 pbc="T T T"
Si      -1.14672152      -1.73808666       1.24361389       0.00000000
Si      -1.37324700       1.33023163      -1.50353785       0.00000000
Si       1.33276635      -1.34908146      -1.52636785       0.00000000
Si       1.04754474       1.83801536       1.66852077       0.00000000
Si       2.64064158       2.71630700       0.05341943       0.00000000
Si      -2.75508602      -0.69057450       2.59623928       0.00000000
Si       2.90605455      -2.52144018      -0.27630500       0.00000000
Si      -2.93015465       2.55000239      -0.06600696       0.00000000
Si      -0.01293426       2.69578160      -2.88682165       0.00000000
Si       2.70094716      -0.02351857      -2.89016683       0.00000000
