10
Lattice="16.28999089631971 0.0 0.0 0.0 16.28999089631971 0.0 0.0 0.0 34.48637585096406" Properties=species:S:1:pos:R:3:initial_magmoms:R:1 pbc="T T T"
Si       0.01267362      -0.97513569       2.16878042       0.00000000
Si      -0.59619771      -1.62471573      -1.66541699       0.00000000
Si       2.16870399       1.14727212      -0.06355843       0.00000000
Si      -1.75754439       1.99624176      -0.36272790       0.00000000
Si       0.51561108       1.22357448       2.88837354       0.00000000
Si      -0.63938250       2.86195752       1.58347732       0.00000000
Si       1.49019291      -2.66410081      -1.66183041       0.00000000
Si       2.45561976       1.09682199      -2.34879940       0.00000000
Si      -3.55982112       0.43898292       0.17588062       0.00000000
Si       1.57920147       3.40996941       0.51422664       0.00000000
