10
Lattice="16.28999089631971 0.0 0.0 0.0 16.28999089631971 0.0 0.0 0.0 34.48637585096406" Properties=species:S:1:pos:R:3:initial_magmoms:R:1 pbc="T T T"
Si      -1.35826020      -1.33874478       1.37466564       0.00000000
Si       1.35698958       1.37707515       1.36828566       0.00000000
Si      -1.22223870       1.50009723      -1.36628200       0.00000000
Si       1.42260570      -1.36562328      -1.44047603       0.00000000
Si       2.33478054       0.51603462      -2.49073816       0.00000000
Si       0.67610016       2.38070205      -2.55556465       0.00000000
Si      -2.70128925      -2.67617007      -0.00815258       0.00000000
Si       2.73109995      -2.69032608       0.00075525       0.00000000
Si      -0.00004887      -2.69320941       2.73108454       0.00000000
Si      -2.71262709       0.01901043       2.73111902       0.00000000
