10
Lattice="16.28999089631971 0.0 0.0 0.0 16.28999089631971 0.0 0.0 0.0 34.48637585096406" Properties=species:S:1:pos:R:3:initial_magmoms:R:1 pbc="T T T"
Si       1.46530179      -1.48795110      -1.15546667       0.00000000
Si       1.22789133       1.98700631       0.54016041       0.00000000
Si      -1.72696480       0.87661475      -1.41870132       0.00000000
Si      -0.77928102      -1.31298021       1.89985551       0.00000000
Si      -0.74556072       3.32812943       1.07942417       0.00000000
Si      -3.57888761       0.22194408       0.04307351       0.00000000
Si      -2.65099292       1.81319201       1.59941003       0.00000000
Si       2.23370109      -2.78720892       0.74128506       0.00000000
Si       2.57321727       2.02525523      -1.67117622       0.00000000
Si      -1.85930965       0.31373660       3.25499840       0.00000000
