10
Lattice="16.28999089631971 0.0 0.0 0.0 16.28999089631971 0.0 0.0 0.0 34.48637585096406" Properties=species:S:1:pos:R:3:initial_magmoms:R:1 pbc="T T T"
Si       1.25964054      -1.40735826       1.33538219       0.00000000
Si      -1.33467228      -1.35804843      -1.35472906       0.00000000
Si       1.38026799       1.35547461      -1.34779729       0.00000000
Si      -1.37253024       1.37262798       1.39994072       0.00000000
Si       2.01279240       0.51219018       2.52592152       0.00000000
Si       0.46011105       2.62356966       2.49005567       0.00000000
Si      -2.67590454      -2.71948518       0.01265651       0.00000000
Si      -2.69036192      -0.00524538      -2.70990644       0.00000000
Si      -2.69351403       2.71629234       0.00344864       0.00000000
Si       0.02489112       2.71189404      -2.70959606       0.00000000
