10
Lattice="16.28999089631971 0.0 0.0 0.0 16.28999089631971 0.0 0.0 0.0 34.48637585096406" Properties=species:S:1:pos:R:3:initial_magmoms:R:1 pbc="T T T"
Si       0.58091769      -0.79363251       2.15315808       0.00000000
Si      -0.75315186      -1.91954844      -1.19053933       0.00000000
Si       1.97271900       0.84260025      -1.09452921       0.00000000
Si      -1.55268135       2.11137948      -0.03586585       0.00000000
Si      -2.01279240      -0.51219018      -2.52592152       0.00000000
Si       0.73977777       2.21081364      -2.53371545       0.00000000
Si       0.73207260       1.25964054       3.28972620       0.00000000
Si      -3.38532264       0.86043780      -1.12598080       0.00000000
Si      -2.06086419      -3.02979339       0.40866378       0.00000000
Si      -3.30084270      -0.89570565       1.49495074       0.00000000
