10
Lattice="16.28999089631971 0.0 0.0 0.0 16.28999089631971 0.0 0.0 0.0 34.48637585096406" Properties=species:S:1:pos:R:3:initial_magmoms:R:1 pbc="T T T"
Si      -2.08355616       0.36461907       0.92837376       0.00000000
Si       0.05517423      -2.16748224       1.02365967       0.00000000
Si       1.64634885       1.44029664       1.02117665       0.00000000
Si      -0.41233248       0.39506508      -2.42591098       0.00000000
Si      -3.21035175      -1.24434423      -0.41983737       0.00000000
Si       1.64208087       1.60977780      -2.72490802       0.00000000
Si      -1.93380219      -3.16236141       0.18357108       0.00000000
Si       1.86106734      -3.26920752       0.09356159       0.00000000
Si       3.28000779       0.04797405      -1.91164985       0.00000000
Si      -2.00401209      -0.44722566       3.20113065       0.00000000
