10
Lattice="16.28999089631971 0.0 0.0 0.0 16.28999089631971 0.0 0.0 0.0 34.48637585096406" Properties=species:S:1:pos:R:3:initial_magmoms:R:1 pbc="T T T"
Si      -0.33337485       0.95374692       2.09228959       0.00000000
Si      -1.13344191      -2.05711749       0.25585457       0.00000000
Si      -0.96430284       1.41867981      -1.63637945       0.00000000
Si       1.28394522      -2.02043241       0.35203712       0.00000000
Si       0.27170091      -1.01568150       3.29689937       0.00000000
Si       1.23817032       2.91190266       1.72000896       0.00000000
Si      -3.25848870       1.20671433      -1.22016315       0.00000000
Si       2.39927265      -1.62812034       2.39359723       0.00000000
Si       2.75748975      -2.22058764      -1.42039116       0.00000000
Si       1.71835065       3.37113405      -0.58971736       0.00000000
