10
Lattice="16.28999089631971 0.0 0.0 0.0 16.28999089631971 0.0 0.0 0.0 34.48637585096406" Properties=species:S:1:pos:R:3:initial_magmoms:R:1 pbc="T T T"
Si      -1.35791811      -1.35640314      -1.35683273       0.00000000
Si       1.35734796      -1.35684297       1.35703965       0.00000000
Si      -1.35729909       1.35809730       1.35676376       0.00000000
Si       1.35997065       1.35922131      -1.35900537       0.00000000
Si       0.00089595       2.71399545       2.71366546       0.00000000
Si      -2.71604799      -0.00009774      -2.71269984       0.00000000
Si      -2.71511946      -0.00004887       2.71411378       0.00000000
Si       0.00022806      -2.71494027       2.71449313       0.00000000
Si       2.71515204       0.00177561       2.71438967       0.00000000
Si      -2.71526607      -2.71448415      -0.00058627       0.00000000
