10
Lattice="16.28999089631971 0.0 0.0 0.0 16.28999089631971 0.0 0.0 0.0 34.48637585096406" Properties=species:S:1:pos:R:3:initial_magmoms:R:1 pbc="T T T"
Si       1.25317341      -1.09636587      -1.96413815       0.00000000
Si       2.26129635      -0.06491565       1.34610746       0.00000000
Si      -1.30391676      -2.04408549       1.03431596       0.00000000
Si      -1.16504451       1.61417610      -1.81650189       0.00000000
Si      -0.55182375       2.21612418       1.50336542       0.00000000
Si      -2.28371139       2.82843270       0.08863004       0.00000000
Si       2.85391026      -2.22762492      -0.72435224       0.00000000
Si       2.39598207      -2.38029480       1.61227346       0.00000000
Si       0.33132231      -3.17009916       2.37476765       0.00000000
Si       4.04392734      -0.14055012      -0.27806380       0.00000000
