10
Lattice="16.28999089631971 0.0 0.0 0.0 16.28999089631971 0.0 0.0 0.0 34.48637585096406" Properties=species:S:1:pos:R:3:initial_magmoms:R:1 pbc="T T T"
Si      -1.57328820       1.17235872      -1.25006285       0.00000000
Si       1.16673867      -1.56247164      -1.27168582       0.00000000
Si      -1.12572045      -1.66190580       1.22616378       0.00000000
Si       1.29790575       1.14461685       1.70093798       0.00000000
Si      -0.20510739       2.49792161      -2.61386183       0.00000000
Si       2.51203203      -0.21649410      -2.61720701       0.00000000
Si       2.61252504       2.59549794       0.28202974       0.00000000
Si       2.39967990      -2.93068503       0.16750042       0.00000000
Si      -2.41782696      -0.54411858       2.90361652       0.00000000
Si      -2.90605455       2.52144018       0.27630500       0.00000000
