10
Lattice="16.28999089631971 0.0 0.0 0.0 16.28999089631971 0.0 0.0 0.0 34.48637585096406" Properties=species:S:1:pos:R:3:initial_magmoms:R:1 pbc="T T T"
Si       1.73188764      -0.61230852       1.41473539       0.00000000
Si      -0.64163052       2.19972734       0.48349926       0.00000000
Si      -1.74954600      -1.31347899       0.99920881       0.00000000
Si       1.11866688      -1.21425660      -1.90513193       0.00000000
Si      -2.03774868       2.00058209      -1.66124414       0.00000000
Si       2.28371139      -2.82843270      -0.08863004       0.00000000
Si       0.95070069      -1.40170563       3.47681490       0.00000000
Si      -3.21484779       0.17447211       2.15467548       0.00000000
Si       1.34861652       3.63178124       0.39452436       0.00000000
Si      -2.59706583      -2.90299203      -0.70245338       0.00000000
