10
Lattice="16.28999089631971 0.0 0.0 0.0 16.28999089631971 0.0 0.0 0.0 34.48637585096406" Properties=species:S:1:pos:R:3:initial_magmoms:R:1 pbc="T T T"
Si       2.29703661      -0.08676054       0.69676313       0.00000000
Si      -1.47808944      -1.35291708       1.33689959       0.00000000
Si      -0.59223924       2.17943000      -0.93892659       0.00000000
Si       0.70191981      -1.32387201      -1.93644557       0.00000000
Si       2.77583229      -1.78276131      -0.88419668       0.00000000
Si       2.66704767       2.17250675       0.32493081       0.00000000
Si      -2.51048448      -2.41176708      -0.51557161       0.00000000
Si       1.70373852       2.54188250      -1.73959723       0.00000000
Si      -1.22992758      -2.53490319      -2.51729993       0.00000000
Si      -0.98763012       3.58476830       1.00386448       0.00000000
