10
Lattice="16.28999089631971 0.0 0.0 0.0 16.28999089631971 0.0 0.0 0.0 34.48637585096406" Properties=species:S:1:pos:R:3:initial_magmoms:R:1 pbc="T T T"
Si       2.30575176      -0.46032282      -0.09845866       0.00000000
Si      -0.21582621       0.45618516       2.30351876       0.00000000
Si      -0.75862530       1.87149294      -1.28720470       0.00000000
Si      -1.69469757      -1.68638967      -0.30123866       0.00000000
Si      -2.73983139       2.40707556      -0.05035014       0.00000000
Si      -1.79102034       0.81264294      -3.13967590       0.00000000
Si      -2.51001207       0.24421968       2.71973507       0.00000000
Si       3.30758676       1.11835737       1.45846414       0.00000000
Si      -3.54722895      -0.98336214       0.97665471       0.00000000
Si      -2.48670108      -1.39981599      -2.52381785       0.00000000
