10
Lattice="16.28999089631971 0.0 0.0 0.0 16.28999089631971 0.0 0.0 0.0 34.48637585096406" Properties=species:S:1:pos:R:3:initial_magmoms:R:1 pbc="T T T"
Si       0.48018033       0.45923139      -2.30972631       0.00000000
Si       1.73195280      -0.09958077       1.67365924       0.00000000
Si      -1.51174458       1.64184485       1.09987460       0.00000000
Si      -1.57154517      -1.95815574       0.37228064       0.00000000
Si      -3.08936592       0.88598052      -0.54016041       0.00000000
Si      -1.82255778       0.76071042      -2.67486826       0.00000000
Si      -1.23817032      -2.91190266      -1.72000896       0.00000000
Si       1.79481591       2.55213868       1.98948565       0.00000000
Si       0.50156910      -0.61160805       3.63596961       0.00000000
Si       2.34859446       1.93364648      -2.18202319       0.00000000
