10
Lattice="16.28999089631971 0.0 0.0 0.0 16.28999089631971 0.0 0.0 0.0 34.48637585096406" Properties=species:S:1:pos:R:3:initial_magmoms:R:1 pbc="T T T"
Si       0.98385084       1.57073393      -1.41314901       0.00000000
Si      -0.67564404       0.96810167       2.05807909       0.00000000
Si      -1.60935426      -1.14490176      -1.34058964       0.00000000
Si       2.19462138      -0.83289467       1.12660156       0.00000000
Si       1.33094187       2.37764279       2.26348006       0.00000000
Si       2.31617736      -2.76399339      -0.16570713       0.00000000
Si       2.36525913       0.11900497      -2.85157655       0.00000000
Si       1.64489904       3.40590017       0.08669880       0.00000000
Si      -0.36375570      -2.58372825      -2.86940602       0.00000000
Si      -2.92397355      -2.59578285       0.07831860       0.00000000
