10
Lattice="16.28999089631971 0.0 0.0 0.0 16.28999089631971 0.0 0.0 0.0 34.48637585096406" Properties=species:S:1:pos:R:3:initial_magmoms:R:1 pbc="T T T"
Si      -1.20146895      -1.49716081       1.36647310       0.00000000
Si       1.56763557       1.21461661       1.42740711       0.00000000
Si      -1.60153506       0.86243007      -1.64941531       0.00000000
Si      -1.66439817      -1.78928938      -1.96524171       0.00000000
Si      -2.89478187      -2.30131666      -0.00293134       0.00000000
Si       0.13620069       2.52144276       2.77179370       0.00000000
Si      -2.57434128      -0.18987202       2.77775295       0.00000000
Si       2.85075000       2.63579856      -0.01438083       0.00000000
Si      -2.79135666       2.74583751       0.00051730       0.00000000
Si       2.85066855      -0.20727588       2.79069569       0.00000000
