10
Lattice="16.28999089631971 0.0 0.0 0.0 16.28999089631971 0.0 0.0 0.0 34.48637585096406" Properties=species:S:1:pos:R:3:initial_magmoms:R:1 pbc="T T T"
Si      -1.34052039      -1.35120663      -1.37470358       0.00000000
Si      -1.35459495       1.36055709       1.35497046       0.00000000
Si       1.35969372      -1.35449721       1.35652235       0.00000000
Si       1.38339567       1.32551730      -1.36677171       0.00000000
Si       0.11315034       2.79143811      -2.62737360       0.00000000
Si       0.00143352      -2.71340901       2.71280330       0.00000000
Si       2.71427238      -2.71199178      -0.00372453       0.00000000
Si      -2.71379997       0.00146610       2.71290676       0.00000000
Si       2.71583622       0.00130320       2.71283779       0.00000000
Si      -2.71508688      -2.71425609      -0.00731112       0.00000000
