10
Lattice="16.28999089631971 0.0 0.0 0.0 16.28999089631971 0.0 0.0 0.0 34.48637585096406" Properties=species:S:1:pos:R:3:initial_magmoms:R:1 pbc="T T T"
Si      -1.56985101       1.80980271       0.07490445       0.00000000
Si       0.59696334       0.38530737       2.35145485       0.00000000
Si       1.55152476      -0.91707813      -1.72818223       0.00000000
Si      -2.18061198      -1.27366623      -0.28289190       0.00000000
Si      -3.29870871       0.03795570       1.39397458       0.00000000
Si      -0.08552250      -2.01588750      -3.05380477       0.00000000
Si       0.21654297       2.73706209       2.55192427       0.00000000
Si       2.89196370      -0.17927145       2.47453680       0.00000000
Si      -1.56879216      -3.17047383      -1.58333937       0.00000000
Si      -2.15076870       2.60343522      -2.07825363       0.00000000
