10
Lattice="16.28999089631971 0.0 0.0 0.0 16.28999089631971 0.0 0.0 0.0 34.48637585096406" Properties=species:S:1:pos:R:3:initial_magmoms:R:1 pbc="T T T"
Si      -1.07241957      -1.61712459       1.37566230       0.00000000
Si       1.35032697       1.31742117       1.46225764       0.00000000
Si       1.37894850      -1.31367447      -1.47715576       0.00000000
Si      -1.34172585       1.38435678      -1.46584422       0.00000000
Si       2.68438023       2.59667487      -0.08680226       0.00000000
Si       2.65720851      -2.73463488      -0.06121335       0.00000000
Si       1.61849295      -0.03507237       3.45291583       0.00000000
Si       0.66510441      -3.46701699       1.47287945       0.00000000
Si      -2.70946683      -2.71593396       0.05003976       0.00000000
Si       0.02430468      -2.68459200      -2.84888661       0.00000000
