10
Lattice="16.28999089631971 0.0 0.0 0.0 16.28999089631971 0.0 0.0 0.0 34.48637585096406" Properties=species:S:1:pos:R:3:initial_magmoms:R:1 pbc="T T T"
Si      -1.35260987      -1.36959804      -1.33777210       0.00000000
Si      -1.35694301       1.35861858       1.36331617       0.00000000
Si       1.35890040      -1.35817875       1.36266093       0.00000000
Si       1.37299125       1.37676564      -1.37640376       0.00000000
Si      -0.01740261      -2.72981467      -2.66348086       0.00000000
Si      -2.58740816      -0.06502968      -2.80383014       0.00000000
Si      -2.71044653      -2.71341553       0.00675933       0.00000000
Si      -2.71359050       2.71521720       0.00451772       0.00000000
Si       2.71602030       2.71419093       0.00641447       0.00000000
Si      -2.71235246       0.00016290       2.71987301       0.00000000
