10
Lattice="16.28999089631971 0.0 0.0 0.0 16.28999089631971 0.0 0.0 0.0 34.48637585096406" Properties=species:S:1:pos:R:3:initial_magmoms:R:1 pbc="T T T"
Si      -1.80589311       1.10172528       0.93009808       0.00000000
Si       0.72166329       1.03868298      -1.95413709       0.00000000
Si       1.95468597      -0.09575262       1.31855283       0.00000000
Si      -1.01605617      -2.12998266      -0.25388884       0.00000000
Si       2.49851133      -2.33610003       0.93061537       0.00000000
Si       2.55726936      -0.41977701      -2.43084253       0.00000000
Si      -1.09713150      -2.81729034       2.00193524       0.00000000
Si      -1.86106734       3.26920752      -0.09356159       0.00000000
Si      -3.79486953       0.10684611       0.09000949       0.00000000
Si       0.35450298      -3.42370188      -1.68103933       0.00000000
