10
Lattice="16.28999089631971 0.0 0.0 0.0 16.28999089631971 0.0 0.0 0.0 34.48637585096406" Properties=species:S:1:pos:R:3:initial_magmoms:R:1 pbc="T T T"
Si       1.34302905       1.33742529       1.38281823       0.00000000
Si      -1.37299125      -1.37676564       1.37640376       0.00000000
Si      -1.36698187       1.41315750      -1.39429530       0.00000000
Si       1.35110889      -1.31087259      -1.51459764       0.00000000
Si      -0.66394782      -2.27706507      -2.68314848       0.00000000
Si      -2.37175395      -0.31978899      -2.68570841       0.00000000
Si       2.70128925       2.67617007       0.00815258       0.00000000
Si       2.68363089      -2.73686661      -0.00246923       0.00000000
Si      -0.01133784       2.69518050       2.73927161       0.00000000
Si      -2.74722721       2.68975593       0.01777429       0.00000000
