10
Lattice="16.28999089631971 0.0 0.0 0.0 16.28999089631971 0.0 0.0 0.0 34.48637585096406" Properties=species:S:1:pos:R:3:initial_magmoms:R:1 pbc="T T T"
Si      -0.13468572       2.31537915      -0.26616600       0.00000000
Si      -2.06465976      -0.78980436       0.76249420       0.00000000
Si       1.71186723      -0.33314679       1.59606485       0.00000000
Si       0.45792819       0.15266988      -2.33662570       0.00000000
Si       3.23405370      -0.69636492      -0.14704999       0.00000000
Si       1.64794527       2.23974468      -1.89033726       0.00000000
Si      -1.68423939      -3.14155908       0.56202478       0.00000000
Si       1.22939001      -2.39534676       2.53050821       0.00000000
Si      -2.39598207       2.38029480      -1.61227346       0.00000000
Si       1.96123455      -2.86189236      -1.44035878       0.00000000
