10
Lattice="16.28999089631971 0.0 0.0 0.0 16.28999089631971 0.0 0.0 0.0 34.48637585096406" Properties=species:S:1:pos:R:3:initial_magmoms:R:1 pbc="T T T"
Si      -1.85241735       0.91577493      -0.99734655       0.00000000
Si       0.08667909      -2.35357920      -0.07800823       0.00000000
Si       0.49107834       0.93478536       2.12101676       0.00000000
Si       1.90456164       0.21869325      -1.40725184       0.00000000
Si       2.05879536      -2.08829655       1.25561516       0.00000000
Si       3.52282653      -0.49300056       0.12401308       0.00000000
Si       1.25801154      -1.01362896       3.22275362       0.00000000
Si      -1.22204322       2.99550294      -1.87147320       0.00000000
Si       1.48524075      -1.21559238      -3.22702994       0.00000000
Si      -2.34823608      -0.25330950      -2.92944683       0.00000000
