10
Lattice="16.28999089631971 0.0 0.0 0.0 16.28999089631971 0.0 0.0 0.0 34.48637585096406" Properties=species:S:1:pos:R:3:initial_magmoms:R:1 pbc="T T T"
Si       0.37001106       2.25926729      -0.37183231       0.00000000
Si       1.08106956      -0.18161721       2.06097595       0.00000000
Si       0.47879568      -1.69600077      -1.58095981       0.00000000
Si      -2.29703661       0.08676054      -0.69676313       0.00000000
Si      -1.59511680      -1.23711147      -2.63320870       0.00000000
Si      -0.59329809       2.62864304      -2.43636036       0.00000000
Si       0.33902748      -3.65832675      -0.33031069       0.00000000
Si      -1.00054809       3.55298651       1.05531818       0.00000000
Si       3.46260240      -0.42629301       1.68828147       0.00000000
Si       1.00476720       1.82629375       3.31472884       0.00000000
