10
Lattice="16.28999089631971 0.0 0.0 0.0 16.28999089631971 0.0 0.0 0.0 34.48637585096406" Properties=species:S:1:pos:R:3:initial_magmoms:R:1 pbc="T T T"
Si      -1.35378045       1.35968720       1.35572917       0.00000000
Si      -1.35511623      -1.35781854      -1.35721208       0.00000000
Si       1.36002822       1.35714596      -1.35741900       0.00000000
Si       1.36298430      -1.35770626       1.36166083       0.00000000
Si      -2.71269225       2.71229477       0.00000000       0.00000000
Si      -2.71370223      -0.00035838      -2.71397584       0.00000000
Si      -2.71265967      -2.71506800       0.00100011       0.00000000
Si       0.00291591       2.71468940      -2.71497594       0.00000000
Si       0.00263898      -2.71493768      -2.71480351       0.00000000
Si       2.71728996       2.71431473      -0.00055178       0.00000000
