10
Lattice="16.28999089631971 0.0 0.0 0.0 16.28999089631971 0.0 0.0 0.0 34.48637585096406" Properties=species:S:1:pos:R:3:initial_magmoms:R:1 pbc="T T T"
Si       0.35043048       1.41270138       1.84612570       0.00000000
Si       1.99306521      -1.07839800      -0.67220881       0.00000000
Si      -0.56065293       1.33187040      -1.88195707       0.00000000
Si      -1.88380818      -1.42594026       0.32903470       0.00000000
Si       1.06517052      -2.66964593      -2.22854534       0.00000000
Si      -1.44117630       2.90773242       1.70328306       0.00000000
Si      -3.38323752      -0.11613141       1.56606169       0.00000000
Si       2.28589492       2.72629440       1.32903670       0.00000000
Si      -1.16217747      -3.37343813       1.39938894       0.00000000
Si      -0.83719197      -0.07815942      -3.75301644       0.00000000
