10
Lattice="16.28999089631971 0.0 0.0 0.0 16.28999089631971 0.0 0.0 0.0 34.48637585096406" Properties=species:S:1:pos:R:3:initial_magmoms:R:1 pbc="T T T"
Si      -0.39750858      -2.29957689       0.51898576       0.00000000
Si       0.92789469       1.59124793       1.55633653       0.00000000
Si      -2.25191331       0.33410301      -0.80425722       0.00000000
Si       1.85192280       0.65467066      -1.46177483       0.00000000
Si       0.95335596      -0.92442396      -2.93127461       0.00000000
Si       0.31069917      -2.93109132      -1.63810377       0.00000000
Si      -1.90236249       2.59148650      -1.52447110       0.00000000
Si       3.57888761      -0.22194408      -0.04307351       0.00000000
Si      -1.06517052       2.66964593       2.22854534       0.00000000
Si       1.71957796       0.09179252       3.21192490       0.00000000
