10
Lattice="16.28999089631971 0.0 0.0 0.0 16.28999089631971 0.0 0.0 0.0 34.48637585096406" Properties=species:S:1:pos:R:3:initial_magmoms:R:1 pbc="T T T"
Si       0.72163071      -1.94749786       1.07035425       0.00000000
Si      -1.49942934       1.30980885       1.23702699       0.00000000
Si       1.88380818       1.42594026      -0.32903470       0.00000000
Si      -1.12679559      -1.03256283      -1.84005610       0.00000000
Si       0.69706539      -0.90960265      -3.36183726       0.00000000
Si      -1.42868187       3.45847614       0.23305906       0.00000000
Si       1.32315525       2.75781066      -2.21099176       0.00000000
Si       0.62894061      -3.67653475      -0.59985636       0.00000000
Si      -3.63144825       0.45455127       0.98286226       0.00000000
Si      -0.53885691      -2.23100902       3.04297605       0.00000000
