10
Lattice="16.28999089631971 0.0 0.0 0.0 16.28999089631971 0.0 0.0 0.0 34.48637585096406" Properties=species:S:1:pos:R:3:initial_magmoms:R:1 pbc="T T T"
Si       1.35534429       1.35814617       1.35690170       0.00000000
Si      -1.35773892       1.35754344      -1.35745348       0.00000000
Si       1.35816246      -1.35741312      -1.35762592       0.00000000
Si      -1.35744570      -1.35980775       1.35735003       0.00000000
Si       0.00146610      -2.71241532       2.71307919       0.00000000
Si       0.00099369       2.71521720       2.71173422       0.00000000
Si      -2.71388142       0.00174303      -2.71376892       0.00000000
Si       2.71357191       0.00104256      -2.71418276       0.00000000
Si      -0.00032580      -2.71471221      -2.71387238       0.00000000
Si      -2.71515204      -2.71441899      -0.00017243       0.00000000
