10
Lattice="16.28999089631971 0.0 0.0 0.0 16.28999089631971 0.0 0.0 0.0 34.48637585096406" Properties=species:S:1:pos:R:3:initial_magmoms:R:1 pbc="T T T"
Si       1.41466825      -1.22240160      -1.39394009       0.00000000
Si       0.92731707       1.80120159       1.22716388       0.00000000
Si      -1.31988096       1.46746836      -1.39600927       0.00000000
Si      -0.89650386      -1.78090425       1.47339675       0.00000000
Si      -1.56146166       0.93592566       2.96041562       0.00000000
Si       2.70732374      -2.55148641       0.09566526       0.00000000
Si       0.04515588      -2.57891877      -2.75391108       0.00000000
Si      -2.75470416      -2.62874988       0.03252067       0.00000000
Si       0.81260777       0.34611363       3.70766683       0.00000000
Si      -0.88953174       3.49519869       1.25685667       0.00000000
