10
Lattice="16.28999089631971 0.0 0.0 0.0 16.28999089631971 0.0 0.0 0.0 34.48637585096406" Properties=species:S:1:pos:R:3:initial_magmoms:R:1 pbc="T T T"
Si       2.19188859      -1.09325448      -0.26347606       0.00000000
Si       0.16426836       1.12098006       2.31045053       0.00000000
Si      -1.78725735      -1.73920185       0.79746340       0.00000000
Si       1.58926610       2.35753767      -1.50257224       0.00000000
Si       3.32429120       1.05099822      -0.37345317       0.00000000
Si      -0.11984553       0.23051979      -3.73684232       0.00000000
Si      -0.78480333       2.94734970      -2.24982345       0.00000000
Si      -2.06379639      -3.14923167      -1.07359597       0.00000000
Si       0.53154270       3.87910512      -0.01203575       0.00000000
Si      -3.01676139       2.08223667      -1.66358921       0.00000000
