10
Lattice="16.28999089631971 0.0 0.0 0.0 16.28999089631971 0.0 0.0 0.0 34.48637585096406" Properties=species:S:1:pos:R:3:initial_magmoms:R:1 pbc="T T T"
Si      -0.82240065      -0.59189715       2.05987238       0.00000000
Si      -1.38484548       1.85231961      -0.27461516       0.00000000
Si       2.16217400       0.76103622      -0.42401023       0.00000000
Si      -0.87757488      -1.61090181      -1.45218761       0.00000000
Si       1.73731777       2.01911292      -2.35345506       0.00000000
Si      -2.84786667      -2.31860457      -0.23688705       0.00000000
Si       0.07918569       3.44761560      -1.40621725       0.00000000
Si      -3.27499047      -0.81733446       1.63837966       0.00000000
Si      -0.35145675      -2.88715815       2.38487217       0.00000000
Si      -0.99062748      -0.66948642      -3.60127630       0.00000000
