10
Lattice="16.28999089631971 0.0 0.0 0.0 16.28999089631971 0.0 0.0 0.0 34.48637585096406" Properties=species:S:1:pos:R:3:initial_magmoms:R:1 pbc="T T T"
Si       2.27548494      -0.36865899       0.35824467       0.00000000
Si      -1.52218647       0.36321813       1.74311484       0.00000000
Si       0.41197410       1.77056010      -1.58527061       0.00000000
Si       0.95913891      -1.30041441      -1.87954302       0.00000000
Si      -1.27281915      -2.16552744      -1.29330879       0.00000000
Si      -3.23405370       0.69636492       0.14704999       0.00000000
Si      -2.77612551       0.84903480      -2.18957571       0.00000000
Si      -1.54098513      -0.81303390      -3.28396698       0.00000000
Si      -2.00466369      -1.69898184       2.67755820       0.00000000
Si      -1.58610843       2.93610960      -1.74328727       0.00000000
