10
Lattice="16.28999089631971 0.0 0.0 0.0 16.28999089631971 0.0 0.0 0.0 34.48637585096406" Properties=species:S:1:pos:R:3:initial_magmoms:R:1 pbc="T T T"
Si       0.44380476       0.76116654       2.30139582       0.00000000
Si      -0.79294833      -2.34566226       0.06814512       0.00000000
Si       1.55349585      -0.56260773      -1.85329887       0.00000000
Si      -1.37977929       1.42113960      -1.72845812       0.00000000
Si      -0.41151798      -2.08599966      -2.30069088       0.00000000
Si      -2.05107390      -0.58578840      -2.94831089       0.00000000
Si       1.19923722      -1.12971150       3.66980563       0.00000000
Si       1.07041590      -3.89879973       0.70862645       0.00000000
Si       0.25892955       2.35467063      -3.39384063       0.00000000
Si       3.51508878      -1.83229920      -1.32776070       0.00000000
