10
Lattice="16.28999089631971 0.0 0.0 0.0 16.28999089631971 0.0 0.0 0.0 34.48637585096406" Properties=species:S:1:pos:R:3:initial_magmoms:R:1 pbc="T T T"
Si       0.89856684       1.57909463       1.46949978       0.00000000
Si       1.60836450      -1.04751216      -1.35262539       0.00000000
Si      -0.64265679      -2.00666736       1.29317084       0.00000000
Si      -1.46140848       1.72963215      -1.11773855       0.00000000
Si      -0.95335596       0.92442396       2.93127461       0.00000000
Si      -0.01659951      -2.20371120      -2.67831690       0.00000000
Si       2.75508602       0.69057450      -2.59623928       0.00000000
Si      -2.69566920       0.53929674      -2.73446076       0.00000000
Si      -1.35086454      -1.37515293       3.45026037       0.00000000
Si       2.62553165       0.70247988       2.88820111       0.00000000
