10
Lattice="16.28999089631971 0.0 0.0 0.0 16.28999089631971 0.0 0.0 0.0 34.48637585096406" Properties=species:S:1:pos:R:3:initial_magmoms:R:1 pbc="T T T"
Si       2.04511176       1.12427064       0.07186965       0.00000000
Si      -1.58592924       1.73346777       0.56174889       0.00000000
Si      -0.29136294      -1.18381059       2.10229065       0.00000000
Si       0.17871759      -1.21617882      -2.10301486       0.00000000
Si       2.11063081       2.31948423      -1.96686257       0.00000000
Si      -1.60155135      -2.73854448      -2.00114205       0.00000000
Si       1.93556151       2.75967261       1.71569816       0.00000000
Si      -0.37450710       3.20596974       1.97776027       0.00000000
Si      -2.25637677      -2.70720252       1.65489864       0.00000000
Si       1.67022999      -2.45350206       2.62782882       0.00000000
