10
Lattice="16.28999089631971 0.0 0.0 0.0 16.28999089631971 0.0 0.0 0.0 34.48637585096406" Properties=species:S:1:pos:R:3:initial_magmoms:R:1 pbc="T T T"
Si      -0.95882940       1.72151091      -1.28617011       0.00000000
Si      -0.15151329       0.74155338       2.26554924       0.00000000
Si      -1.12738203      -2.05177437       0.55160989       0.00000000
Si       2.12307570       0.41451534      -1.11439337       0.00000000
Si       1.12503627      -1.17646380       2.86895770       0.00000000
Si      -0.94943007       0.38644767      -3.26686172       0.00000000
Si       0.63829107       3.40071669      -0.67158806       0.00000000
Si      -3.21443077      -1.00932840       1.11504861       0.00000000
Si       2.64650598       2.38096269       0.25947564       0.00000000
Si      -2.42194996       0.36567792       2.87995886       0.00000000
