10
Lattice="16.28999089631971 0.0 0.0 0.0 16.28999089631971 0.0 0.0 0.0 34.48637585096406" Properties=species:S:1:pos:R:3:initial_magmoms:R:1 pbc="T T T"
Si      -1.86996657       1.47302325      -0.13206841       0.00000000
Si       0.50751495       0.22550247      -2.34497007       0.00000000
Si       1.97648199       0.76620015       1.15720409       0.00000000
Si      -0.86955043      -1.99690965       1.12103821       0.00000000
Si       0.49663323       2.02781178       2.51860282       0.00000000
Si      -2.24979577      -0.72031122       2.53310780       0.00000000
Si      -0.73475068       3.41340660       0.92909728       0.00000000
Si      -2.61712601       1.30953681      -2.48698504       0.00000000
Si      -3.65041700       0.52831728       1.07384703       0.00000000
Si      -0.87480395       0.64378080       3.88853004       0.00000000
