10
Lattice="16.28999089631971 0.0 0.0 0.0 16.28999089631971 0.0 0.0 0.0 34.48637585096406" Properties=species:S:1:pos:R:3:initial_magmoms:R:1 pbc="T T T"
Si       1.35701200       1.35544203       1.35683273       0.00000000
Si      -1.35661270       1.35769005      -1.35710862       0.00000000
Si       1.35711626      -1.35723393      -1.35769489       0.00000000
Si      -1.35978925      -1.35690813       1.35690170       0.00000000
Si       2.71270164       0.00263898       2.71201011       0.00000000
Si      -2.71413985       0.00016290       2.71173422       0.00000000
Si      -2.71252714       0.00053757      -2.71535529       0.00000000
Si      -0.00156163      -2.71401174      -2.71418276       0.00000000
Si      -0.00110268       2.71663443      -2.71218254       0.00000000
Si       2.71457499       2.71511946       0.00006897       0.00000000
