10
Lattice="16.28999089631971 0.0 0.0 0.0 16.28999089631971 0.0 0.0 0.0 34.48637585096406" Properties=species:S:1:pos:R:3:initial_magmoms:R:1 pbc="T T T"
Si       1.32098379      -1.34366436       1.39649208       0.00000000
Si       1.35988431       1.35021294      -1.35248744       0.00000000
Si      -1.39839454       1.19633760       1.45467063       0.00000000
Si      -1.35027388      -1.36190916      -1.35428074       0.00000000
Si      -2.28659050      -0.71817723       2.66000463       0.00000000
Si      -0.46974170      -2.41217433       2.63031184       0.00000000
Si       0.22656947       2.35253664       2.78036215       0.00000000
Si      -2.69737543       2.69009802       0.01027695       0.00000000
Si       2.69351403      -2.71629234      -0.00344864       0.00000000
Si       0.00382815       2.71075374      -2.71273433       0.00000000
