10
Lattice="16.28999089631971 0.0 0.0 0.0 16.28999089631971 0.0 0.0 0.0 34.48637585096406" Properties=species:S:1:pos:R:3:initial_magmoms:R:1 pbc="T T T"
Si      -2.11470101       0.85226022       0.51891679       0.00000000
Si       0.95882940      -1.72151091       1.28617011       0.00000000
Si       0.00939933      -1.33506324      -1.98069162       0.00000000
Si       1.59712047       1.67920578       0.61458205       0.00000000
Si       3.08190510      -1.30699557       0.17177673       0.00000000
Si       2.41719165      -0.93084318      -2.22592437       0.00000000
Si      -3.15062351      -1.26508140       0.70321208       0.00000000
Si      -2.78334917       1.49304366      -1.61927420       0.00000000
Si      -1.72562576      -0.02852379      -3.10981068       0.00000000
Si       0.36002529       3.06473544       2.15943460       0.00000000
