10
Lattice="16.28999089631971 0.0 0.0 0.0 16.28999089631971 0.0 0.0 0.0 34.48637585096406" Properties=species:S:1:pos:R:3:initial_magmoms:R:1 pbc="T T T"
Si       1.23138391      -1.38559482       1.58950554       0.00000000
Si      -1.13521589      -1.94038335      -1.06116569       0.00000000
Si       1.17519970       1.41261993      -1.69645272       0.00000000
Si      -1.48007211       1.28860416       1.58993662       0.00000000
Si       0.73475068      -3.41340660      -0.92909728       0.00000000
Si       2.58532726       2.64065787      -0.03066875       0.00000000
Si       2.71123267      -2.64720645       0.22810681       0.00000000
Si      -0.34297129       3.05885475      -2.39742319       0.00000000
Si       2.57514601      -0.05507649       2.97046840       0.00000000
Si      -3.15517819       2.36009520       0.33958408       0.00000000
