10
Lattice="16.28999089631971 0.0 0.0 0.0 16.28999089631971 0.0 0.0 0.0 34.48637585096406" Properties=species:S:1:pos:R:3:initial_magmoms:R:1 pbc="T T T"
Si       1.29210651      -1.11778722      -1.67745275       0.00000000
Si      -0.36111672      -2.03465358       1.22030109       0.00000000
Si       0.84751983       1.58951304       1.70166219       0.00000000
Si      -1.63494911       1.32747210      -1.38369763       0.00000000
Si      -2.38193846      -1.34320824       2.19881807       0.00000000
Si       1.41073029      -1.87800894       2.74553089       0.00000000
Si      -0.54053478      -2.36872890      -2.76756770       0.00000000
Si       2.41782696       0.54411858      -2.90361652       0.00000000
Si       1.61591913       0.29025522       3.59841393       0.00000000
Si       2.59706583       2.90299203       0.70245338       0.00000000
