10
Lattice="16.28999089631971 0.0 0.0 0.0 16.28999089631971 0.0 0.0 0.0 34.3005442915855" Properties=species:S:1:pos:R:3:initial_magmoms:R:1 pbc="T T T"
Si      -1.35589815      -1.35699960      -1.35768490       0.00000000
Si      -1.35733167       1.35738706       1.35720470       0.00000000
Si       1.35819504      -1.35789470       1.35734190       0.00000000
Si       1.35842310       1.35741964      -1.35926273       0.00000000
Si      -2.71502172      -0.00084708       2.71338037       0.00000000
Si      -0.00138465       2.71510969       2.71389488       0.00000000
Si      -2.71433754      -2.71513642      -0.00034301       0.00000000
Si       2.71518462      -2.71497352      -0.00030871       0.00000000
Si       2.71523349       2.71520743      -0.00017150       0.00000000
Si      -2.71518462       2.71537033      -0.00054881       0.00000000
