10
Lattice="16.28999089631971 0.0 0.0 0.0 16.28999089631971 0.0 0.0 0.0 34.3005442915855" Properties=species:S:1:pos:R:3:initial_magmoms:R:1 pbc="T T T"
Si      -1.38158748       1.32054885      -1.51927486       0.00000000
Si       1.31931081      -1.38430628      -1.52795290       0.00000000
Si      -1.56998133      -1.50998526       1.17966498       0.00000000
Si       1.56284631       1.33178895       1.49917473       0.00000000
Si       2.65100202      -2.80928285      -0.20179021       0.00000000
Si       2.81399976       2.73409731      -0.06863543       0.00000000
Si      -2.90206350       2.64132576      -0.13274318       0.00000000
Si      -0.02594997       2.67543702      -2.90776167       0.00000000
Si       2.68837128      -0.04015485      -2.90566933       0.00000000
Si      -2.73961962      -0.04308705      -2.90680125       0.00000000
