10
Lattice="16.28999089631971 0.0 0.0 0.0 16.28999089631971 0.0 0.0 0.0 34.3005442915855" Properties=species:S:1:pos:R:3:initial_magmoms:R:1 pbc="T T T"
Si      -0.64749492       0.14462588      -2.20724126       0.00000000
Si      -1.63220913       0.29882050       1.66512085       0.00000000
Si       1.83171276       1.40088950       0.56712552       0.00000000
Si       0.69649524      -2.27081853       0.10458242       0.00000000
Si      -0.93641436      -1.49414391       3.03024898       0.00000000
Si       1.09551879      -2.42529660       2.41674910       0.00000000
Si       1.28296782      -0.36516479      -3.43266319       0.00000000
Si      -1.13171517       2.37120335      -2.59034425       0.00000000
Si       3.46351464      -0.12262786       1.37692752       0.00000000
Si      -3.76543350      -0.30096590       0.83422400       0.00000000
