10
Lattice="16.28999089631971 0.0 0.0 0.0 16.28999089631971 0.0 0.0 0.0 34.3005442915855" Properties=species:S:1:pos:R:3:initial_magmoms:R:1 pbc="T T T"
Si      -0.82906326      -0.01228103      -2.16755551       0.00000000
Si      -1.93046274       0.50979066       1.22542193       0.00000000
Si       1.86064380       1.39891027       0.34952274       0.00000000
Si       0.88371621      -2.18421274       0.19619922       0.00000000
Si       1.00380609      -1.02793225      -3.27632122       0.00000000
Si      -2.85643521      -1.20311491      -1.82170293       0.00000000
Si       3.15516123      -1.67818018      -0.50600191       0.00000000
Si       3.42990837      -0.12888159       1.25588083       0.00000000
Si      -1.28296782       0.36516479       3.43266319       0.00000000
Si      -2.41468299       2.73636814       0.84231894       0.00000000
