10
Lattice="16.28999089631971 0.0 0.0 0.0 16.28999089631971 0.0 0.0 0.0 34.3005442915855" Properties=species:S:1:pos:R:3:initial_magmoms:R:1 pbc="T T T"
Si       1.81076382       1.37020077       0.69228827       0.00000000
Si       0.36880560      -2.14616026      -0.96374293       0.00000000
Si      -1.31046534      -0.46931490       1.94007417       0.00000000
Si      -0.97288767       1.40856372      -1.76781674       0.00000000
Si      -3.39081074      -0.54876123       0.80688645       0.00000000
Si       0.80378118       3.49249455       0.42223994       0.00000000
Si       3.35013624       1.12831056      -1.06801664       0.00000000
Si      -1.76441877      -2.74594666      -1.79463978       0.00000000
Si      -1.32597342       1.50618969       3.20610797       0.00000000
Si       0.27142398       3.36577464      -1.89538054       0.00000000
