10
Lattice="16.28999089631971 0.0 0.0 0.0 16.28999089631971 0.0 0.0 0.0 34.3005442915855" Properties=species:S:1:pos:R:3:initial_magmoms:R:1 pbc="T T T"
Si       1.35698958       1.35609363      -1.35775350       0.00000000
Si      -1.35975888       1.35596331       1.35614138       0.00000000
Si       1.35604476      -1.35751086       1.36008594       0.00000000
Si      -1.35834165      -1.35842310      -1.35751340       0.00000000
Si      -2.70151731       0.00154755       2.71125374       0.00000000
Si      -2.71564074       2.71231758      -0.00144062       0.00000000
Si       2.71393029      -0.00100998      -2.71471810       0.00000000
Si      -0.00074934       2.71381626      -2.71519830       0.00000000
Si      -0.00076563      -2.71564074      -2.71488960       0.00000000
Si      -2.71539639      -0.00162900      -2.71550701       0.00000000
