10
Lattice="16.28999089631971 0.0 0.0 0.0 16.28999089631971 0.0 0.0 0.0 34.3005442915855" Properties=species:S:1:pos:R:3:initial_magmoms:R:1 pbc="T T T"
Si       1.18882791       1.51343874      -1.42508551       0.00000000
Si      -1.26061794       1.62562797       1.26953245       0.00000000
Si      -1.61086923      -1.34825814      -1.40598010       0.00000000
Si       2.48502321       0.95778684       1.18645649       0.00000000
Si      -1.79144388      -0.20518884       2.80743252       0.00000000
Si       2.38319442       0.01071882      -2.78191290       0.00000000
Si       0.08615781      -1.58900805       3.40844699       0.00000000
Si       0.24148296       3.57521517       1.53117715       0.00000000
Si      -0.32319360      -2.69456148      -2.80218453       0.00000000
Si      -0.33756138       2.72922660      -2.79436400       0.00000000
