10
Lattice="16.28999089631971 0.0 0.0 0.0 16.28999089631971 0.0 0.0 0.0 34.3005442915855" Properties=species:S:1:pos:R:3:initial_magmoms:R:1 pbc="T T T"
Si      -1.13031423      -1.36563957      -1.55244491       0.00000000
Si       1.04940180      -1.59910785       1.39613240       0.00000000
Si      -1.67824467       1.12687704       1.36548828       0.00000000
Si       1.94048109       0.69141276      -1.46240593       0.00000000
Si       2.39836041      -0.24415452       2.76131198       0.00000000
Si      -0.67671918      -0.19538226      -3.64234394       0.00000000
Si      -0.31789935       2.46944997       2.75915104       0.00000000
Si       2.66598882       2.60508051      -0.08095276       0.00000000
Si      -0.31265397       2.22270534      -3.08657191       0.00000000
Si       2.45100969      -2.93109228       0.00519997       0.00000000
