10
Lattice="16.28999089631971 0.0 0.0 0.0 16.28999089631971 0.0 0.0 0.0 34.3005442915855" Properties=species:S:1:pos:R:3:initial_magmoms:R:1 pbc="T T T"
Si      -0.84637953       1.18289835      -1.83305641       0.00000000
Si       2.08034540       0.07944633       1.13318772       0.00000000
Si      -1.33755577       1.24914978       1.51262055       0.00000000
Si      -0.17110039      -2.13998146      -1.09360486       0.00000000
Si       1.07737010      -1.80204215       2.70171818       0.00000000
Si      -3.38445180       0.40899303       0.77176268       0.00000000
Si       3.39081074       0.54876123      -0.80688645       0.00000000
Si      -3.16825092       0.95998599      -1.57003969       0.00000000
Si       1.62639197      -2.19718543      -2.60152624       0.00000000
Si       2.06483732       2.05495092       2.39922151       0.00000000
