10
Lattice="16.28999089631971 0.0 0.0 0.0 16.28999089631971 0.0 0.0 0.0 34.3005442915855" Properties=species:S:1:pos:R:3:initial_magmoms:R:1 pbc="T T T"
Si      -1.46033334       0.12883761       1.82993506       0.00000000
Si       1.25029008      -1.98125496      -0.27052854       0.00000000
Si      -1.43052264       0.61193385      -1.77639188       0.00000000
Si       1.40646231       1.74838941       0.74006896       0.00000000
Si       3.43839546       0.81723672       0.12656908       0.00000000
Si      -1.42255683       2.94156742      -1.45595602       0.00000000
Si       0.71066754       3.54135382      -0.62505917       0.00000000
Si       3.41778861      -1.48581090       0.48288333       0.00000000
Si      -3.32092990      -0.90337824      -1.55631947       0.00000000
Si       1.39357692      -2.56332924      -2.52208613       0.00000000
