10
Lattice="16.28999089631971 0.0 0.0 0.0 16.28999089631971 0.0 0.0 0.0 34.3005442915855" Properties=species:S:1:pos:R:3:initial_magmoms:R:1 pbc="T T T"
Si      -0.76243716       1.58214996      -1.61737447       0.00000000
Si      -1.10838789       1.48287870       1.67122635       0.00000000
Si      -0.36406521      -2.41808760      -0.55577203       0.00000000
Si       2.37749292      -0.57202335      -0.61857636       0.00000000
Si       2.25313506      -1.53129258       1.62416598       0.00000000
Si      -2.87521758       0.88809822      -1.02877680       0.00000000
Si       1.73226231      -2.44465659      -1.94762029       0.00000000
Si      -0.80448165       3.69044153       0.02479931       0.00000000
Si       0.31265397      -2.22270534       3.08657191       0.00000000
Si      -0.81766026      -3.58834491       1.53412700       0.00000000
