10
Lattice="16.28999089631971 0.0 0.0 0.0 16.28999089631971 0.0 0.0 0.0 34.3005442915855" Properties=species:S:1:pos:R:3:initial_magmoms:R:1 pbc="T T T"
Si       1.35788553      -1.35693908      -1.36022314       0.00000000
Si      -1.36010097       1.35721764      -1.36063475       0.00000000
Si      -1.36906047      -1.34415143       1.37771643       0.00000000
Si       1.37544615       1.34425080       1.38738919       0.00000000
Si       2.71036278      -2.71487528       0.00233244       0.00000000
Si       2.71539639       2.71350675      -0.00164643       0.00000000
Si      -2.71432125       2.71559187      -0.00209233       0.00000000
Si       2.71430496      -0.00021177      -2.71735924       0.00000000
Si      -2.71904535      -2.71279718      -0.00154353       0.00000000
Si      -0.00070047       2.71463076      -2.71732494       0.00000000
