10
Lattice="16.28999089631971 0.0 0.0 0.0 16.28999089631971 0.0 0.0 0.0 34.3005442915855" Properties=species:S:1:pos:R:3:initial_magmoms:R:1 pbc="T T T"
Si      -1.86149088       0.86130117       1.07216701       0.00000000
Si       1.25516079       1.38481290      -1.46724090       0.00000000
Si       1.11275361      -1.18912113       1.76860565       0.00000000
Si      -1.95299181      -1.08320355      -1.56949088       0.00000000
Si      -3.20157144      -1.05031404       0.45163552       0.00000000
Si       2.76589539       2.53011393      -0.01660147       0.00000000
Si       1.23411411      -3.44183102       1.08815108       0.00000000
Si      -0.51155487       3.75756543      -0.58149745       0.00000000
Si       3.02363577       0.05253525       2.43513420       0.00000000
Si      -2.65567725       2.97268065       0.22933357       0.00000000
