10
Lattice="16.28999089631971 0.0 0.0 0.0 16.28999089631971 0.0 0.0 0.0 34.3005442915855" Properties=species:S:1:pos:R:3:initial_magmoms:R:1 pbc="T T T"
Si       0.45199863      -1.44899550      -1.75982471       0.00000000
Si      -0.85990023      -1.08185148       1.89044125       0.00000000
Si      -1.95773220       1.18651473      -0.58235497       0.00000000
Si       2.13633576       1.00554912       0.39438788       0.00000000
Si      -1.34249148       1.09055034       2.88416288       0.00000000
Si      -1.32152625       2.37144933      -2.43067513       0.00000000
Si      -2.30780430       2.55280590       1.27289391       0.00000000
Si       2.02126320      -2.97678736      -0.85346662       0.00000000
Si       2.71575477       2.08785672      -1.59603952       0.00000000
Si      -1.40864517      -2.84790577      -2.10934745       0.00000000
