10
Lattice="16.28999089631971 0.0 0.0 0.0 16.28999089631971 0.0 0.0 0.0 34.3005442915855" Properties=species:S:1:pos:R:3:initial_magmoms:R:1 pbc="T T T"
Si      -0.45199863       1.44899550       1.75982471       0.00000000
Si      -1.86064380      -1.39891027      -0.34952274       0.00000000
Si       1.56926457      -1.52779186       0.90635809       0.00000000
Si       1.04917374       0.63276876      -2.05288872       0.00000000
Si       1.17053424      -1.61994113      -2.73334330       0.00000000
Si       1.29451743      -3.07709045      -0.85552465       0.00000000
Si       1.68433713       2.45454462       2.15421259       0.00000000
Si      -0.97692759      -3.58312301      -0.15332352       0.00000000
Si      -2.40973083       2.63551023       1.17746974       0.00000000
Si       2.96005590       1.87442514      -1.38636017       0.00000000
