10
Lattice="16.28999089631971 0.0 0.0 0.0 16.28999089631971 0.0 0.0 0.0 34.3005442915855" Properties=species:S:1:pos:R:3:initial_magmoms:R:1 pbc="T T T"
Si      -1.48483350       0.89151912       1.64467772       0.00000000
Si       1.40276448       1.51314552      -1.23866195       0.00000000
Si       1.27104354      -0.26068887       2.06427651       0.00000000
Si      -0.07749153      -2.06368762      -1.33717317       0.00000000
Si       0.59383566      -1.11664203      -3.34670598       0.00000000
Si       2.70658350      -1.99884409       1.27985692       0.00000000
Si       2.48507208      -0.00003258      -2.73684196       0.00000000
Si       1.37135736      -3.43864700      -0.08935297       0.00000000
Si       2.83854879       2.55262671       0.31172352       0.00000000
Si      -2.35413306       2.91623580       0.89764575       0.00000000
