10
Lattice="16.28999089631971 0.0 0.0 0.0 16.28999089631971 0.0 0.0 0.0 34.3005442915855" Properties=species:S:1:pos:R:3:initial_magmoms:R:1 pbc="T T T"
Si       1.24981767      -1.43000136      -1.44964471       0.00000000
Si      -1.25115345      -1.40230836       1.56781015       0.00000000
Si      -1.48742361       1.28070351      -1.46343354       0.00000000
Si       0.87360012       1.78424370       1.45938607       0.00000000
Si       2.57854410       2.68074756      -0.02953279       0.00000000
Si      -1.15528680       3.26832786       1.39394060       0.00000000
Si       2.58976791      -0.06074541      -2.83868033       0.00000000
Si      -1.90454535       0.14532309       3.37397492       0.00000000
Si      -0.12720861       2.65658949      -2.83658800       0.00000000
Si      -2.94146901       2.58919776      -0.07504963       0.00000000
