10
Lattice="16.28999089631971 0.0 0.0 0.0 16.28999089631971 0.0 0.0 0.0 34.3005442915855" Properties=species:S:1:pos:R:3:initial_magmoms:R:1 pbc="T T T"
Si      -1.14766308      -1.51397631      -1.48864445       0.00000000
Si       1.35624024       1.28819691      -1.54139872       0.00000000
Si      -0.96624135       1.15486326       1.91150180       0.00000000
Si       1.80973755      -1.10258865       1.34952137       0.00000000
Si       3.49044201       0.71636904       1.18594198       0.00000000
Si       2.75255388       2.69291619      -0.06266713       0.00000000
Si       2.84117148      -2.70973073      -0.14368506       0.00000000
Si      -2.60939736      -0.10094913      -3.03398774       0.00000000
Si       0.07934859       2.62197324      -3.04678185       0.00000000
Si      -2.22140214      -0.22994964       3.37874270       0.00000000
