10
Lattice="16.28999089631971 0.0 0.0 0.0 16.28999089631971 0.0 0.0 0.0 34.3005442915855" Properties=species:S:1:pos:R:3:initial_magmoms:R:1 pbc="T T T"
Si      -0.13180239      -1.72341684      -1.56290517       0.00000000
Si       2.23187661      -0.16801506       0.69928559       0.00000000
Si      -1.51782075      -0.85426389       1.59164905       0.00000000
Si       0.24821073       2.11491441      -1.10694778       0.00000000
Si      -1.58581521       1.08191664       2.86059839       0.00000000
Si       1.82102652       1.16546805      -2.74689202       0.00000000
Si       1.38057750      -3.26249604      -0.54688818       0.00000000
Si       0.44761662      -0.64110924      -3.55333257       0.00000000
Si       3.37364271       0.02707398      -1.40598010       0.00000000
Si      -1.70150679       2.22324291      -2.43455109       0.00000000
