10
Lattice="16.28999089631971 0.0 0.0 0.0 16.28999089631971 0.0 0.0 0.0 34.3005442915855" Properties=species:S:1:pos:R:3:initial_magmoms:R:1 pbc="T T T"
Si       1.35050616       1.35299853       1.36603023       0.00000000
Si      -1.31263191       1.38165264      -1.38836676       0.00000000
Si      -1.36583505      -1.36246302       1.36390360       0.00000000
Si       1.41361362      -1.33371117      -1.39503136       0.00000000
Si      -2.47347360      -0.11544723      -2.77286239       0.00000000
Si       2.71432125       2.69565291      -0.01085613       0.00000000
Si      -2.71423980       2.71363707       0.00256568       0.00000000
Si       2.70816363      -0.00296478       2.72488135       0.00000000
Si      -0.00659745       2.71265967       2.72594467       0.00000000
Si       2.72052774      -2.71814940      -0.01191259       0.00000000
