10
Lattice="16.28999089631971 0.0 0.0 0.0 16.28999089631971 0.0 0.0 0.0 34.3005442915855" Properties=species:S:1:pos:R:3:initial_magmoms:R:1 pbc="T T T"
Si       1.56351420      -0.41464566       1.79028361       0.00000000
Si      -1.98798273      -1.15901721       0.77392361       0.00000000
Si      -0.45287829       2.39438565      -0.15119688       0.00000000
Si       0.26650440      -1.23285978      -2.11483554       0.00000000
Si      -2.10724182       2.18268081      -1.83504584       0.00000000
Si       3.55405446      -0.83759922       0.24771867       0.00000000
Si       0.07154568      -1.45414314       3.45908632       0.00000000
Si      -1.15650855      -2.93930244       2.06990180       0.00000000
Si      -3.32434917      -1.44462978      -1.09857845       0.00000000
Si      -2.00653704      -0.90086958      -3.08924595       0.00000000
