10
Lattice="16.28999089631971 0.0 0.0 0.0 16.28999089631971 0.0 0.0 0.0 34.3005442915855" Properties=species:S:1:pos:R:3:initial_magmoms:R:1 pbc="T T T"
Si      -1.33147944       1.32682050      -1.38948153       0.00000000
Si       0.96444945       1.83793554       1.08972890       0.00000000
Si       1.39571091      -1.37106414      -1.36468222       0.00000000
Si      -1.66739553      -1.02863205       1.49457845       0.00000000
Si      -0.15438033      -0.56317788       3.34276141       0.00000000
Si       1.84599909       0.67688208       2.96452910       0.00000000
Si      -0.85677255       3.45624345       1.28390439       0.00000000
Si      -2.71712313       2.64490956      -0.03409476       0.00000000
Si      -2.67561621      -0.02021589      -2.74311896       0.00000000
Si       2.88365580      -2.53250856       0.11658762       0.00000000
