10
Lattice="16.28999089631971 0.0 0.0 0.0 16.28999089631971 0.0 0.0 0.0 34.3005442915855" Properties=species:S:1:pos:R:3:initial_magmoms:R:1 pbc="T T T"
Si       0.41699142      -0.50125959       2.24534918       0.00000000
Si      -0.88371621       2.18421274      -0.19619922       0.00000000
Si      -1.80185319      -1.53531621      -0.14989346       0.00000000
Si       2.27144502       0.50603256      -0.70220114       0.00000000
Si       2.54619216       2.05533115       1.05968161       0.00000000
Si       2.33504118      -1.73657916      -1.87795585       0.00000000
Si      -2.79885006      -1.17670815       1.98360158       0.00000000
Si      -1.71277947       2.17193171      -2.36375473       0.00000000
Si       0.61038630      -1.19395926      -3.40000905       0.00000000
Si      -1.47018879       0.27855900       3.34104638       0.00000000
