10
Lattice="16.28999089631971 0.0 0.0 0.0 16.28999089631971 0.0 0.0 0.0 34.3005442915855" Properties=species:S:1:pos:R:3:initial_magmoms:R:1 pbc="T T T"
Si       1.64603934       1.40092371       0.77282600       0.00000000
Si      -1.88718021       0.77981859       1.09569720       0.00000000
Si      -0.41699142       0.50125959      -2.24534918       0.00000000
Si       0.64203777      -2.24912772       0.29851780       0.00000000
Si      -3.21584148      -0.67544856      -0.26174760       0.00000000
Si      -2.21884461      -1.03405662      -2.39524265       0.00000000
Si       2.12920074       2.55659074      -1.18566758       0.00000000
Si       1.85445360       1.00729215      -2.94755032       0.00000000
Si       3.02300046      -2.13768783       0.61641543       0.00000000
Si      -1.48815666       0.62534052       3.40786388       0.00000000
