10
Lattice="16.28999089631971 0.0 0.0 0.0 16.28999089631971 0.0 0.0 0.0 34.3005442915855" Properties=species:S:1:pos:R:3:initial_magmoms:R:1 pbc="T T T"
Si      -0.61945983       0.39679182      -2.23711705       0.00000000
Si       0.64523061       1.87263324       1.32904393       0.00000000
Si       1.57885938      -1.78768089      -0.26140459       0.00000000
Si      -2.09632752       0.02656899       1.39184826       0.00000000
Si      -0.36347877      -3.16231254       0.29028567       0.00000000
Si      -1.73226231       2.44465659       1.94762029       0.00000000
Si       2.71520091      -1.04695830      -2.26586092       0.00000000
Si       2.54666457       2.68050321      -0.37589987       0.00000000
Si       0.52087275       0.91336401       3.57178627       0.00000000
Si       0.79697196      -0.95697234      -3.56571507       0.00000000
