10
Lattice="16.28999089631971 0.0 0.0 0.0 16.28999089631971 0.0 0.0 0.0 34.3005442915855" Properties=species:S:1:pos:R:3:initial_magmoms:R:1 pbc="T T T"
Si       1.35720365       1.35634922       1.35744480       0.00000000
Si      -1.35770634      -1.35854937       1.35747910       0.00000000
Si      -1.35995436       1.35460944      -1.35943423       0.00000000
Si       1.35756040      -1.35911952      -1.36180097       0.00000000
Si      -0.00043732       2.71350170       2.71461519       0.00000000
Si      -2.71513575       2.71353428       0.00144062       0.00000000
Si       2.71489859      -0.00104646       2.71461519       0.00000000
Si      -2.71539639      -0.00077456       2.71434079       0.00000000
Si      -2.71544526      -2.71433349       0.00058311       0.00000000
Si       2.71426328       2.71622213      -0.00106332       0.00000000
