10
Lattice="16.28999089631971 0.0 0.0 0.0 16.28999089631971 0.0 0.0 0.0 34.3005442915855" Properties=species:S:1:pos:R:3:initial_magmoms:R:1 pbc="T T T"
Si      -0.81428823       1.12492224       1.97238530       0.00000000
Si       0.73788813      -1.97654715       1.24860911       0.00000000
Si      -1.39631364      -1.40471928      -1.47873159       0.00000000
Si       1.40356269       1.27578393      -1.59123744       0.00000000
Si       1.46321913       1.70414577       2.70309020       0.00000000
Si      -2.47072059       2.64347604      -0.18985362       0.00000000
Si       2.57126477      -2.78617644      -0.16584322       0.00000000
Si      -2.75255388      -2.69291619       0.06266713       0.00000000
Si       3.09610088       2.35294389      -0.26637818       0.00000000
Si       0.04968450       2.66874183      -2.97766621       0.00000000
