10
Lattice="16.28999089631971 0.0 0.0 0.0 16.28999089631971 0.0 0.0 0.0 34.3005442915855" Properties=species:S:1:pos:R:3:initial_magmoms:R:1 pbc="T T T"
Si       0.53828676      -2.18748636       0.53244765       0.00000000
Si      -2.23187661       0.16801506      -0.69928559       0.00000000
Si       0.44740485       1.40465412       1.84516451       0.00000000
Si       1.14176610       0.19508904      -2.10526568       0.00000000
Si      -0.85129911      -3.09448098      -1.24617377       0.00000000
Si       2.86015815      -1.96457400       0.26943093       0.00000000
Si      -1.98366588       2.28292947      -1.80623337       0.00000000
Si      -1.54465038       0.91794150       3.13572321       0.00000000
Si      -2.36367900      -1.55540178      -2.26219076       0.00000000
Si      -0.41085009       1.33348311      -3.44617761       0.00000000
