10
Lattice="16.28999089631971 0.0 0.0 0.0 16.28999089631971 0.0 0.0 0.0 34.3005442915855" Properties=species:S:1:pos:R:3:initial_magmoms:R:1 pbc="T T T"
Si       1.99205523       0.48671262      -1.29055870       0.00000000
Si      -0.26650440       1.23285978       2.11483554       0.00000000
Si       0.06125040      -2.41499250       0.56637090       0.00000000
Si      -2.27304144       0.33199020      -0.97441041       0.00000000
Si      -2.20504698      -1.60419033      -2.24335975       0.00000000
Si       1.54465038      -0.91794150      -3.13572321       0.00000000
Si      -2.25448713       0.07384257       2.88875915       0.00000000
Si      -3.59085357      -0.21177000       1.01625709       0.00000000
Si       3.82098286      -0.40360104       0.01975712       0.00000000
Si      -1.37453391      -3.45447369      -0.98401456       0.00000000
