10
Lattice="16.28999089631971 0.0 0.0 0.0 16.28999089631971 0.0 0.0 0.0 34.3005442915855" Properties=species:S:1:pos:R:3:initial_magmoms:R:1 pbc="T T T"
Si       2.09048985      -0.71987139       0.86482011       0.00000000
Si      -0.65233305      -1.72385667      -1.56973099       0.00000000
Si       0.41906025       2.07614421      -1.18299213       0.00000000
Si      -1.71479943       0.55887732       1.68185953       0.00000000
Si      -3.09226554       1.72586034       0.06589138       0.00000000
Si      -1.72074528       3.06346482      -1.31991998       0.00000000
Si       2.74927049      -0.44758404      -2.68614573       0.00000000
Si      -0.49583502       1.43224938       3.61143773       0.00000000
Si       3.43125134      -1.71870903      -0.83110265       0.00000000
Si      -2.74574466      -1.18169289      -2.58866352       0.00000000
