10
Lattice="16.28999089631971 0.0 0.0 0.0 16.28999089631971 0.0 0.0 0.0 34.3005442915855" Properties=species:S:1:pos:R:3:initial_magmoms:R:1 pbc="T T T"
Si       1.21477788      -1.06707645      -1.71310734       0.00000000
Si      -1.16550063       1.90711170      -0.76500547       0.00000000
Si       0.90994311       1.39743018       1.70322878       0.00000000
Si      -1.77127686      -1.31952258       0.94281959       0.00000000
Si      -1.06769547      -1.27480653       3.14018228       0.00000000
Si      -0.84302379       1.07856809       3.36272434       0.00000000
Si      -3.24241047       1.12077385      -1.36876398       0.00000000
Si       2.17684966      -2.95746579      -0.72264427       0.00000000
Si      -3.72557187      -0.03489318       0.58972959       0.00000000
Si       1.85328465       3.30404273       0.57052127       0.00000000
