10
Lattice="16.28999089631971 0.0 0.0 0.0 16.28999089631971 0.0 0.0 0.0 34.3005442915855" Properties=species:S:1:pos:R:3:initial_magmoms:R:1 pbc="T T T"
Si      -0.70358139      -0.04471605      -2.19736270       0.00000000
Si       2.13980553      -0.98732061       0.13692785       0.00000000
Si      -1.37152026      -1.33760448       1.38581136       0.00000000
Si       0.22467168       2.35337462       0.22254206       0.00000000
Si      -2.64655485       0.44499393       2.30211662       0.00000000
Si       1.06769547       1.27480653      -3.14018228       0.00000000
Si       1.97763858       2.67223671      -1.43695351       0.00000000
Si       1.72074528      -3.06346482       1.31991998       0.00000000
Si       3.52907442       0.62920125       1.17301067       0.00000000
Si      -1.28091528      -2.29869819      -2.70686327       0.00000000
