10
Lattice="16.28999089631971 0.0 0.0 0.0 16.28999089631971 0.0 0.0 0.0 34.3005442915855" Properties=species:S:1:pos:R:3:initial_magmoms:R:1 pbc="T T T"
Si      -1.28767563       1.34630334       1.39620444       0.00000000
Si       1.34175843       1.35441576      -1.35511236       0.00000000
Si      -1.36925595      -1.36078515      -1.35068759       0.00000000
Si       1.24330167      -1.42645014       1.41037057       0.00000000
Si      -2.39735043      -0.29884005       2.74071792       0.00000000
Si      -0.54001350      -2.28944547       2.83161442       0.00000000
Si       2.70638802       2.70528030       0.02027163       0.00000000
Si       2.70151731      -0.00154755      -2.71125374       0.00000000
Si      -0.01412343       2.71077003      -2.71269436       0.00000000
Si      -0.01342296      -2.71785618      -2.71163104       0.00000000
