10
Lattice="16.28999089631971 0.0 0.0 0.0 16.28999089631971 0.0 0.0 0.0 34.3005442915855" Properties=species:S:1:pos:R:3:initial_magmoms:R:1 pbc="T T T"
Si       1.75669731      -0.11057652      -1.52740409       0.00000000
Si       0.68198085      -1.27112499       1.85504307       0.00000000
Si      -1.82580373      -1.32051627      -0.75769945       0.00000000
Si      -0.73142263       2.25476406      -0.23207761       0.00000000
Si      -1.22547064       1.82838960      -2.49660081       0.00000000
Si       0.98751609       1.44937017      -3.12930901       0.00000000
Si      -0.65878063      -0.27228735       3.55096583       0.00000000
Si      -2.48623586      -0.16448013      -2.79799986       0.00000000
Si      -2.33021024       2.52372825       1.50315359       0.00000000
Si       3.02446656      -0.65712231       2.19835741       0.00000000
