10
Lattice="16.28999089631971 0.0 0.0 0.0 16.28999089631971 0.0 0.0 0.0 34.3005442915855" Properties=species:S:1:pos:R:3:initial_magmoms:R:1 pbc="T T T"
Si       0.03567510      -0.95518044       2.27251523       0.00000000
Si       0.37196586      -1.68270813      -1.78712796       0.00000000
Si      -2.51105952       0.65420640       0.32101897       0.00000000
Si       1.17820683       2.29918689      -1.07971314       0.00000000
Si      -2.20462018       1.90923687      -1.90793454       0.00000000
Si       3.49958070       0.46871217       0.88543475       0.00000000
Si       1.00072728       0.90161892       3.47744056       0.00000000
Si      -0.77186907       3.55426623      -1.05686896       0.00000000
Si      -1.49372784      -1.38394953      -3.19393127       0.00000000
Si       0.05955624      -3.75662061      -0.58986679       0.00000000
