10
Lattice="16.28999089631971 0.0 0.0 0.0 16.28999089631971 0.0 0.0 0.0 34.3005442915855" Properties=species:S:1:pos:R:3:initial_magmoms:R:1 pbc="T T T"
Si       1.23077955      -1.48179446       1.31618122       0.00000000
Si      -1.34702240      -1.35599576      -1.35641578       0.00000000
Si       1.37141112       1.35413883      -1.35504376       0.00000000
Si      -1.38074270       1.35439947       1.35885112       0.00000000
Si       2.54104941      -0.11275938       2.73142247       0.00000000
Si      -2.70679757      -2.70738890       0.03502088       0.00000000
Si      -2.70490793      -0.00113541      -2.71434079       0.00000000
Si       0.00929996       2.71329498      -2.71399778       0.00000000
Si       0.01209695      -2.71414925      -2.71331177       0.00000000
Si       2.72566398      -0.00166810      -2.71506110       0.00000000
