10
Lattice="16.28999089631971 0.0 0.0 0.0 16.28999089631971 0.0 0.0 0.0 34.3005442915855" Properties=species:S:1:pos:R:3:initial_magmoms:R:1 pbc="T T T"
Si      -1.34354570      -1.36917450      -1.39579283       0.00000000
Si       1.37079373       1.34503272      -1.39675324       0.00000000
Si       1.45349806      -1.37526696       1.35257412       0.00000000
Si      -1.46823466       1.43853732       1.64196797       0.00000000
Si      -2.70259312      -2.70461241      -0.01420043       0.00000000
Si      -2.70588370       2.71406061      -0.00631130       0.00000000
Si       2.72680591       2.70221778      -0.03580979       0.00000000
Si      -2.70223474      -0.00954594      -2.75433525       0.00000000
Si       0.01301082       2.70730026      -2.75464395       0.00000000
Si       2.74117369      -2.72157030      -0.04363032       0.00000000
