10
Lattice="16.28999089631971 0.0 0.0 0.0 16.28999089631971 0.0 0.0 0.0 34.3005442915855" Properties=species:S:1:pos:R:3:initial_magmoms:R:1 pbc="T T T"
Si      -0.62043723       0.08143371       2.20899059       0.00000000
Si       0.58829706      -2.21576580      -0.46144548       0.00000000
Si      -1.78512336       0.64382967      -1.38605147       0.00000000
Si       1.97302851       1.18403865      -0.60705137       0.00000000
Si       0.99123021      -1.72141317      -2.77014781       0.00000000
Si       0.50367051       2.06581635       2.76033784       0.00000000
Si      -0.88637148      -0.33759396      -3.37116228       0.00000000
Si       2.59529022       0.04269609      -2.58478756       0.00000000
Si      -1.42587999      -3.50062326       0.04016596       0.00000000
Si       2.70472644      -2.67983532       0.69355739       0.00000000
