10
Lattice="10.86 0.0 0.0 0.0 10.86 0.0 0.0 0.0 10.86" Properties=species:S:1:pos:R:3:initial_magmoms:R:1 pbc="T T T"
Si       0.04985826      -1.63728618      -1.77982368       0.00000000
Si      -1.23369600      -0.60353364       2.22338952       0.00000000
Si      -1.28556336       2.20441710      -0.83496024       0.00000000
Si      -2.57439558       0.83683902      -1.87630392       0.00000000
Si      -1.09335222      -0.45627204      -3.13532544       0.00000000
Si      -1.09335222      -3.17127204      -0.42032544       0.00000000
Si       3.22615848      -1.74017382       0.95030430       0.00000000
Si      -3.80835222      -0.45627204      -0.42032544       0.00000000
Si       0.41640498      -1.65771384       3.54868962       0.00000000
Si       1.62164778       2.25872796      -3.13532544       0.00000000
