10
Lattice="16.28999089631971 0.0 0.0 0.0 16.28999089631971 0.0 0.0 0.0 34.474598006748145" Properties=species:S:1:pos:R:3:initial_magmoms:R:1 pbc="T T T"
Si      -1.35589815       1.35324006      -1.35392164       0.00000000
Si       1.35760860       1.35480879       1.35750700       0.00000000
Si      -1.35723393      -1.36036836       1.35778280       0.00000000
Si       1.35718506      -1.36100367      -1.36285057       0.00000000
Si      -0.01418859       2.70093131      -2.71597240       0.00000000
Si      -2.71371852       2.71072160       0.00041370       0.00000000
Si      -0.00060273       2.71283930       2.71532428       0.00000000
Si       2.71700910       2.71309994       0.00124109       0.00000000
Si       2.71572219      -0.00211553       2.71463479       0.00000000
Si      -2.71539639      -0.00218864       2.71542770       0.00000000
