10
Lattice="16.28999089631971 0.0 0.0 0.0 16.28999089631971 0.0 0.0 0.0 34.474598006748145" Properties=species:S:1:pos:R:3:initial_magmoms:R:1 pbc="T T T"
Si       1.36370106       1.35231761      -1.38057052       0.00000000
Si      -1.35809730      -1.35990942      -1.37874337       0.00000000
Si       1.23398379      -1.37831712       1.54080854       0.00000000
Si      -1.30504077       1.56622160       1.35385269       0.00000000
Si       2.71090035       2.69894675       0.00286139       0.00000000
Si      -2.71236645      -2.70655485      -0.00579174       0.00000000
Si       2.72168433      -2.70754854       0.00430933       0.00000000
Si       0.00304623       2.71080587      -2.73969783       0.00000000
Si      -2.71231758      -0.00421911      -2.74045628       0.00000000
Si       0.00386073      -2.71755060      -2.73835332       0.00000000
