10
Lattice="16.28999089631971 0.0 0.0 0.0 16.28999089631971 0.0 0.0 0.0 34.474598006748145" Properties=species:S:1:pos:R:3:initial_magmoms:R:1 pbc="T T T"
Si      -1.99246248      -0.17745349       1.28200759       0.00000000
Si       1.64458953       1.46358157       0.91668007       0.00000000
Si      -0.14514390       1.19919487      -2.06402981       0.00000000
Si       0.44887095      -2.35169023      -0.25862858       0.00000000
Si      -1.00136259      -0.86486868       3.30204779       0.00000000
Si       2.16920898       0.78153556      -2.78765203       0.00000000
Si       3.30607179       1.56306460      -0.66829046       0.00000000
Si      -1.96895601       0.04569671      -3.28632737       0.00000000
Si       1.22789133      -1.74842266       3.23320198       0.00000000
Si       0.43210854      -3.43852645       1.84259934       0.00000000
