10
Lattice="16.28999089631971 0.0 0.0 0.0 16.28999089631971 0.0 0.0 0.0 34.474598006748145" Properties=species:S:1:pos:R:3:initial_magmoms:R:1 pbc="T T T"
Si      -0.94918572      -1.75458124      -1.31348292       0.00000000
Si       0.84506004       1.88915130      -1.22739980       0.00000000
Si      -2.40593526       0.26896419       0.71527936       0.00000000
Si       2.69151525      -0.19857510       0.77940215       0.00000000
Si       1.78219116       0.62224542       2.82822865       0.00000000
Si       0.57173013      -2.16975307      -3.01470186       0.00000000
Si      -0.69229242      -3.74217857       0.10259646       0.00000000
Si       0.06160878       1.70023617      -3.44315240       0.00000000
Si       3.21631389       1.65983697      -1.30248552       0.00000000
Si       0.03862359       2.57742009       2.92855707       0.00000000
