10
Lattice="16.28999089631971 0.0 0.0 0.0 16.28999089631971 0.0 0.0 0.0 34.474598006748145" Properties=species:S:1:pos:R:3:initial_magmoms:R:1 pbc="T T T"
Si      -2.13610770       0.58694499      -0.70945315       0.00000000
Si       1.59964542       0.33370065      -1.70428718       0.00000000
Si       0.80770707       1.10514618       1.94757455       0.00000000
Si      -0.77382387      -2.12312457       0.82380545       0.00000000
Si      -2.89238724       1.38761478       1.45810394       0.00000000
Si       0.72847251      -2.32616313       2.64120385       0.00000000
Si      -0.01127268      -0.29361096       3.64665607       0.00000000
Si       1.75086549      -1.51431840      -3.13653515       0.00000000
Si       0.28243602       3.38452443       1.93519817       0.00000000
Si      -2.98118403      -1.12464531      -2.35551270       0.00000000
