10
Lattice="16.28999089631971 0.0 0.0 0.0 16.28999089631971 0.0 0.0 0.0 34.474598006748145" Properties=species:S:1:pos:R:3:initial_magmoms:R:1 pbc="T T T"
Si       0.52527105      -2.27937825       0.01237639       0.00000000
Si       0.88167996       0.88011612       2.00356133       0.00000000
Si      -2.35770057       0.31291461      -0.15103330       0.00000000
Si       1.43889570       0.92220948      -1.68963547       0.00000000
Si       1.31012325       3.15516123      -0.91188810       0.00000000
Si       2.86598115      -2.06695665       0.21263944       0.00000000
Si      -2.40127632       2.04237504      -1.73831363       0.00000000
Si       3.46195080      -0.16602768      -1.06212848       0.00000000
Si       1.59014835       3.06398610       1.43966002       0.00000000
Si      -3.17482326      -1.99690965      -0.47709423       0.00000000
