10
Lattice="16.28999089631971 0.0 0.0 0.0 16.28999089631971 0.0 0.0 0.0 34.474598006748145" Properties=species:S:1:pos:R:3:initial_magmoms:R:1 pbc="T T T"
Si      -0.52527105       2.27937825      -0.01237639       0.00000000
Si      -0.81897975      -1.39875714       1.69908151       0.00000000
Si       2.34071010       0.21242160       0.20026305       0.00000000
Si      -0.80770707      -1.10514618      -1.94757455       0.00000000
Si      -0.07923456      -3.43130931       0.69362930       0.00000000
Si      -3.13667208      -0.93809223       1.50985034       0.00000000
Si       0.91362465       3.20158773      -1.70201185       0.00000000
Si      -3.70009431       0.28246860      -0.48947062       0.00000000
Si       0.35640891       3.15949437       1.99118494       0.00000000
Si      -1.58153094      -3.22827075      -1.12376910       0.00000000
