10
Lattice="16.28999089631971 0.0 0.0 0.0 16.28999089631971 0.0 0.0 0.0 34.474598006748145" Properties=species:S:1:pos:R:3:initial_magmoms:R:1 pbc="T T T"
Si       1.31913162      -1.29878541       1.50373109       0.00000000
Si       1.12233213       1.60590078      -1.39118668       0.00000000
Si      -1.39719330       1.40724423       1.47904727       0.00000000
Si      -1.05985998      -1.52449965      -1.67060345       0.00000000
Si      -2.65656994      -2.54023002      -0.04659245       0.00000000
Si      -0.39514653       1.64853171      -3.32648827       0.00000000
Si       2.77480602      -2.52788220       0.10384789       0.00000000
Si       2.64093480       2.78534565       0.10451670       0.00000000
Si      -0.03943809      -2.65764834       2.86958096       0.00000000
Si       2.67758730       0.05836707       2.86961543       0.00000000
