10
Lattice="16.28999089631971 0.0 0.0 0.0 16.28999089631971 0.0 0.0 0.0 34.474598006748145" Properties=species:S:1:pos:R:3:initial_magmoms:R:1 pbc="T T T"
Si      -0.73594962       0.91140921       2.02762461       0.00000000
Si      -0.52735617       1.50195429      -1.73855495       0.00000000
Si      -1.27601199      -2.03636403      -0.15610107       0.00000000
Si       2.40246549      -0.21234015      -0.19236836       0.00000000
Si      -0.77377500      -2.65080654      -2.39012522       0.00000000
Si       3.10422240      -0.20875635       2.07630277       0.00000000
Si       1.33040430       1.69176537      -3.08927045       0.00000000
Si      -0.69237387      -0.81805122       3.61490494       0.00000000
Si      -2.45480526       0.72472581      -2.77234530       0.00000000
Si       0.71118882       2.72186352       2.64237599       0.00000000
