10
Lattice="16.28999089631971 0.0 0.0 0.0 16.28999089631971 0.0 0.0 0.0 34.474598006748145" Properties=species:S:1:pos:R:3:initial_magmoms:R:1 pbc="T T T"
Si       1.36140417      -1.25545401      -1.42569780       0.00000000
Si      -1.54323315       0.48637053      -1.78095873       0.00000000
Si       0.80394408       1.81586259       1.36012708       0.00000000
Si      -0.69613686      -1.52160003       1.77313299       0.00000000
Si       0.65293578      -3.43932399      -0.86179648       0.00000000
Si      -0.93906963       2.75698476      -2.12970396       0.00000000
Si       1.78207713       0.59849460       3.19438356       0.00000000
Si      -0.86884344      -3.69159093       0.94239814       0.00000000
Si      -1.27635408       2.85000066       2.39184895       0.00000000
Si       1.99169685       3.42614538      -0.01399669       0.00000000
