10
Lattice="16.28999089631971 0.0 0.0 0.0 16.28999089631971 0.0 0.0 0.0 34.474598006748145" Properties=species:S:1:pos:R:3:initial_magmoms:R:1 pbc="T T T"
Si      -1.35422028       1.35569031      -1.36171291       0.00000000
Si      -1.35426915      -1.34664543       1.37295163       0.00000000
Si       1.36195803      -1.35764118      -1.35960996       0.00000000
Si       1.35809730       1.35990942       1.37874337       0.00000000
Si       0.04782744      -2.72417670       2.66237127       0.00000000
Si      -2.71233387       2.71362797      -0.00393011       0.00000000
Si      -2.71166598      -0.00130223      -2.71787540       0.00000000
Si       0.00312768       2.71372571      -2.71797883       0.00000000
Si      -2.71471221      -2.71728603      -0.00427485       0.00000000
Si       2.72179836       2.71222703      -0.00182715       0.00000000
