10
Lattice="16.28999089631971 0.0 0.0 0.0 16.28999089631971 0.0 0.0 0.0 34.474598006748145" Properties=species:S:1:pos:R:3:initial_magmoms:R:1 pbc="T T T"
Si       0.01645290      -1.63825272       1.62092755       0.00000000
Si      -0.79615746       2.11419765       0.67966708       0.00000000
Si       2.33750097       0.50513661      -0.00882550       0.00000000
Si      -0.86980455      -1.62121338      -1.59503712       0.00000000
Si       2.60480358       0.71772111      -2.34130916       0.00000000
Si      -1.88379189       0.06182055      -3.12271083       0.00000000
Si      -1.16724366       3.22198281      -1.28773038       0.00000000
Si      -2.71397916       1.77590322       1.93799061       0.00000000
Si       3.37844826      -1.24861221       1.26932093       0.00000000
Si       0.70424928      -3.68515638       0.77509282       0.00000000
