10
Lattice="16.28999089631971 0.0 0.0 0.0 16.28999089631971 0.0 0.0 0.0 34.474598006748145" Properties=species:S:1:pos:R:3:initial_magmoms:R:1 pbc="T T T"
Si      -0.80394408      -1.81586259      -1.36012708       0.00000000
Si       0.97813305      -1.21736799       1.83425649       0.00000000
Si       1.18775277       1.61028279      -1.37412377       0.00000000
Si      -2.08029816       1.03413807       1.03172187       0.00000000
Si      -0.81627561       2.60656357      -2.08557645       0.00000000
Si      -1.50008094      -3.33746262       0.41300591       0.00000000
Si       0.52310448       0.02249649       3.78824332       0.00000000
Si      -2.33719146       3.02173540      -0.38435751       0.00000000
Si      -1.74301371       0.94112217      -3.48983103       0.00000000
Si       3.30906915      -1.52386434       1.70649356       0.00000000
