10
Lattice="16.28999089631971 0.0 0.0 0.0 16.28999089631971 0.0 0.0 0.0 34.474598006748145" Properties=species:S:1:pos:R:3:initial_magmoms:R:1 pbc="T T T"
Si       1.35578412      -1.35685926      -1.36116131       0.00000000
Si       1.34719929       1.34662914       1.38343192       0.00000000
Si      -1.36065483       1.35848826      -1.35912731       0.00000000
Si      -1.36370106      -1.35231761       1.38057052       0.00000000
Si       2.70386307      -2.70668843      -0.00189610       0.00000000
Si      -2.66874183       0.21390399       2.73442322       0.00000000
Si       2.71101438       0.00084708      -2.71618615       0.00000000
Si       2.71308321       2.71682991      -0.00068949       0.00000000
Si      -0.00234576      -2.71345615      -2.71684116       0.00000000
Si      -0.00304623       2.71604799      -2.71639299       0.00000000
