10
Lattice="16.28999089631971 0.0 0.0 0.0 16.28999089631971 0.0 0.0 0.0 34.474598006748145" Properties=species:S:1:pos:R:3:initial_magmoms:R:1 pbc="T T T"
Si      -0.27859158       2.10663583      -1.01517405       0.00000000
Si       1.91288583      -0.44912605      -1.37539933       0.00000000
Si      -2.01883599      -1.14426891      -0.65143237       0.00000000
Si       0.35504055       0.79111245       2.31952120       0.00000000
Si      -1.90307925       1.82318983       2.43121896       0.00000000
Si      -1.30766346      -1.85570208      -2.80606147       0.00000000
Si       2.05493463      -2.75635989      -1.49971480       0.00000000
Si      -1.42469082       1.77374968      -3.12440009       0.00000000
Si      -1.37828061       3.68160190       0.34933130       0.00000000
Si       1.91674656       3.13331308      -1.48258092       0.00000000
