10
Lattice="16.28999089631971 0.0 0.0 0.0 16.28999089631971 0.0 0.0 0.0 34.474598006748145" Properties=species:S:1:pos:R:3:initial_magmoms:R:1 pbc="T T T"
Si      -1.35739683      -1.35651717      -1.35612802       0.00000000
Si       1.35755973       1.35799956      -1.35602460       0.00000000
Si       1.35873261      -1.35573525       1.35957548       0.00000000
Si      -1.36037790       1.35664749       1.35988575       0.00000000
Si       2.70190827       0.01686015       2.71291106       0.00000000
Si       0.00037467      -2.71376739      -2.71315238       0.00000000
Si      -2.71456560       0.00055386      -2.71325580       0.00000000
Si       2.71376739      -2.71507059       0.00162031       0.00000000
Si       2.71531494       0.00048870      -2.71373845       0.00000000
Si      -2.71500543      -2.71407690       0.00113766       0.00000000
