10
Lattice="16.28999089631971 0.0 0.0 0.0 16.28999089631971 0.0 0.0 0.0 34.474598006748145" Properties=species:S:1:pos:R:3:initial_magmoms:R:1 pbc="T T T"
Si       0.75932577      -0.28554741      -2.15993820       0.00000000
Si       1.49068161       1.12559013       1.40529024       0.00000000
Si      -1.18869107      -1.59831453       1.29178601       0.00000000
Si      -2.07849649       1.59720192      -1.75665412       0.00000000
Si       0.16021215       2.00314872      -2.71670326       0.00000000
Si      -1.10383646      -1.82595424      -2.62896536       0.00000000
Si       0.02570562       2.40670089       2.70781368       0.00000000
Si       3.20388462       2.02290849       0.05333951       0.00000000
Si      -2.67948787      -0.33515046       2.70956844       0.00000000
Si      -3.45923756      -0.50350761      -1.55818375       0.00000000
