10
Lattice="16.28999089631971 0.0 0.0 0.0 16.28999089631971 0.0 0.0 0.0 34.474598006748145" Properties=species:S:1:pos:R:3:initial_magmoms:R:1 pbc="T T T"
Si      -0.17158257       1.39895262      -1.90630844       0.00000000
Si      -1.37671677       1.03415436       1.65991835       0.00000000
Si       2.22687558      -0.22395492       0.87624135       0.00000000
Si      -1.26271935      -2.04400404      -0.23739221       0.00000000
Si      -0.96282045      -2.69832447       1.95739982       0.00000000
Si      -1.97268642      -0.86677461       2.93468627       0.00000000
Si      -0.20592189       2.91714804       2.45445485       0.00000000
Si      -1.55572758       0.40452957      -3.49334744       0.00000000
Si       3.18643803       2.19289464       0.50746637       0.00000000
Si       2.39117652       0.12256596       3.20462252       0.00000000
