10
Lattice="16.28999089631971 0.0 0.0 0.0 16.28999089631971 0.0 0.0 0.0 34.474598006748145" Properties=species:S:1:pos:R:3:initial_magmoms:R:1 pbc="T T T"
Si      -0.74927484       1.58969223       1.58555660       0.00000000
Si       1.39913181       1.50004836      -1.42686993       0.00000000
Si      -2.24621181      -0.30055050      -1.14965954       0.00000000
Si       1.77526791      -1.58544054       1.33547772       0.00000000
Si       0.29374128      -2.70277164      -2.36523454       0.00000000
Si      -1.88517654       0.06424776       3.13051041       0.00000000
Si      -2.88394902      -1.78518852       1.86580804       0.00000000
Si       0.56596347       1.44769230      -3.61876610       0.00000000
Si      -2.07751257      -2.47345731      -2.29014883       0.00000000
Si       1.00668942      -0.84198123      -3.80413612       0.00000000
