10
Lattice="16.28999089631971 0.0 0.0 0.0 16.28999089631971 0.0 0.0 0.0 34.474598006748145" Properties=species:S:1:pos:R:3:initial_magmoms:R:1 pbc="T T T"
Si       1.45199286       1.33084413       1.32585383       0.00000000
Si      -1.28834352      -1.49708358       1.33699947       0.00000000
Si       0.60194808      -0.90911232      -2.12784233       0.00000000
Si      -0.29913327       1.45200915      -2.01914386       0.00000000
Si      -2.63006937       1.75850550      -1.89138093       0.00000000
Si       0.00845451       2.55417426       2.77969326       0.00000000
Si      -2.82291039      -2.58549993      -0.14820638       0.00000000
Si      -2.69224830      -0.17223417       2.78568839       0.00000000
Si       3.59240112      -0.05655888      -1.48775211       0.00000000
Si       2.72978046      -0.16892730       2.77571489       0.00000000
