10
Lattice="16.28999089631971 0.0 0.0 0.0 16.28999089631971 0.0 0.0 0.0 34.474598006748145" Properties=species:S:1:pos:R:3:initial_magmoms:R:1 pbc="T T T"
Si       1.35817875      -1.35532800       1.35988575       0.00000000
Si      -1.35578412       1.36159777       1.35916179       0.00000000
Si       1.37292120       1.36370106      -1.35307357       0.00000000
Si      -1.36505313      -1.34744364      -1.38289067       0.00000000
Si       0.07848522      -2.57077377      -2.83673009       0.00000000
Si      -2.71630863      -2.70914103      -0.00020685       0.00000000
Si       0.00105885      -2.71225242       2.71670326       0.00000000
Si      -2.71430496       0.00280188       2.71670326       0.00000000
Si       2.71529865       2.71657646       0.00355089       0.00000000
Si       2.71845891      -2.71407690       0.00058607       0.00000000
