10
Lattice="16.28999089631971 0.0 0.0 0.0 16.28999089631971 0.0 0.0 0.0 34.474598006748145" Properties=species:S:1:pos:R:3:initial_magmoms:R:1 pbc="T T T"
Si      -1.35663120       1.35804106       1.35695541       0.00000000
Si       1.35759231      -1.35741312       1.35736911       0.00000000
Si      -1.35751086      -1.35861858      -1.35671409       0.00000000
Si       1.35852084       1.35879589      -1.35754148       0.00000000
Si       0.00149868       2.71463795       2.71263526       0.00000000
Si       0.00153126      -2.71339272       2.71456584       0.00000000
Si      -0.00200367      -2.71194291      -2.71691011       0.00000000
Si      -2.71474479       2.71496538      -0.00017237       0.00000000
Si      -2.71482624      -2.71515204      -0.00013790       0.00000000
Si      -2.71412577       0.00162900       2.71601377       0.00000000
