10
Lattice="16.28999089631971 0.0 0.0 0.0 16.28999089631971 0.0 0.0 0.0 34.474598006748145" Properties=species:S:1:pos:R:3:initial_magmoms:R:1 pbc="T T T"
Si       1.34587980       1.35317772      -1.38677595       0.00000000
Si      -1.35884664      -1.37373570      -1.38353534       0.00000000
Si       1.85867271      -0.89917542       1.27776721       0.00000000
Si      -1.48770054       1.32923142       1.53649922       0.00000000
Si       2.69242749       2.71404825       0.00913577       0.00000000
Si      -2.72168433       2.70754854      -0.00430933       0.00000000
Si       2.72577312      -2.71314837      -0.00854971       0.00000000
Si      -2.69889462      -2.74220973      -0.01789233       0.00000000
Si      -0.00219915       2.70300689      -2.74604116       0.00000000
Si       2.71179630      -0.01207089      -2.74190421       0.00000000
