10
Lattice="16.28999089631971 0.0 0.0 0.0 16.28999089631971 0.0 0.0 0.0 34.474598006748145" Properties=species:S:1:pos:R:3:initial_magmoms:R:1 pbc="T T T"
Si       1.35720135      -1.35100792       1.35885151       0.00000000
Si      -1.35715248      -1.35590739      -1.35692094       0.00000000
Si       1.35770617       1.35873913      -1.35671409       0.00000000
Si      -1.35379674       1.35927670       1.36588434       0.00000000
Si       0.00027693      -2.71371919      -2.71456584       0.00000000
Si      -2.71471221      -2.71376806       0.00230980       0.00000000
Si       2.71513316       0.00160619      -2.71429004       0.00000000
Si      -2.71511946       0.00184729      -2.71435899       0.00000000
Si       2.71509407      -2.71453369       0.00013790       0.00000000
Si       0.00006516       2.71690159      -2.71435899       0.00000000
