10
Lattice="16.28999089631971 0.0 0.0 0.0 16.28999089631971 0.0 0.0 0.0 34.474598006748145" Properties=species:S:1:pos:R:3:initial_magmoms:R:1 pbc="T T T"
Si      -1.34654769      -1.36087053      -1.39591173       0.00000000
Si       1.38028428       1.34692562      -1.38746545       0.00000000
Si       0.94345164      -1.76018730       1.30986308       0.00000000
Si      -1.54575810       1.42738193       1.75106924       0.00000000
Si      -2.70321147       2.69244704      -0.01058371       0.00000000
Si      -2.69242749      -2.71404825      -0.00913577       0.00000000
Si       2.72363913       2.70130880       0.01254876       0.00000000
Si      -2.69462664      -0.01104136      -2.75517694       0.00000000
Si       0.01770723       2.70331247      -2.75266029       0.00000000
Si       2.72766276      -2.73344964      -0.01758205       0.00000000
