10
Lattice="16.28999089631971 0.0 0.0 0.0 16.28999089631971 0.0 0.0 0.0 34.474598006748145" Properties=species:S:1:pos:R:3:initial_magmoms:R:1 pbc="T T T"
Si       1.62303690       1.33524732       1.11873581       0.00000000
Si       0.92325939      -2.16710987      -0.35295113       0.00000000
Si      -0.74839518       0.53887809      -2.21230514       0.00000000
Si      -1.72867851       0.69024477       1.54060170       0.00000000
Si      -3.34231704       1.06067937      -0.20508950       0.00000000
Si       3.17197970      -1.36402916      -0.93991597       0.00000000
Si       0.47082987       3.39824550       1.16844820       0.00000000
Si      -2.12056704       2.42752440      -1.75441327       0.00000000
Si      -1.76977818      -1.09157009       3.15284165       0.00000000
Si       1.71840182       0.72464925       3.41657247       0.00000000
