10
Lattice="16.28999089631971 0.0 0.0 0.0 16.28999089631971 0.0 0.0 0.0 34.474598006748145" Properties=species:S:1:pos:R:3:initial_magmoms:R:1 pbc="T T T"
Si      -0.21996387       2.31616107       0.23125573       0.00000000
Si       2.03009238      -0.77818959       0.92698798       0.00000000
Si      -0.00599472      -0.15126894      -2.35885674       0.00000000
Si      -2.19533814      -1.02667725       0.46740686       0.00000000
Si      -0.08272062      -2.54841086      -2.08995472       0.00000000
Si       1.63515762       0.11349243       3.01925251       0.00000000
Si      -2.58207903       2.40907923       0.39301064       0.00000000
Si      -0.00386073      -3.58243913       0.10718159       0.00000000
Si      -2.28017646       0.36831690      -2.78485958       0.00000000
Si       1.07382051       3.18920733      -1.53763688       0.00000000
