10
Lattice="16.28999089631971 0.0 0.0 0.0 16.28999089631971 0.0 0.0 0.0 34.474598006748145" Properties=species:S:1:pos:R:3:initial_magmoms:R:1 pbc="T T T"
Si       1.34135348       1.35853713       1.37654734       0.00000000
Si      -1.36863693      -1.35946566       1.37358252       0.00000000
Si      -1.49723019       1.14583860      -1.43603329       0.00000000
Si       1.43967177      -1.24136316      -1.53993634       0.00000000
Si      -0.29735766      -2.40342660      -2.57673908       0.00000000
Si      -2.19970386      -0.76056381      -2.86908594       0.00000000
Si      -0.16780329       2.55567294      -2.74621840       0.00000000
Si       2.69409626      -2.69465922       0.00027580       0.00000000
Si       2.69904842       2.70611109      -0.01429662       0.00000000
Si       2.70198062      -0.00040725       2.73570912       0.00000000
