10
Lattice="16.28999089631971 0.0 0.0 0.0 16.28999089631971 0.0 0.0 0.0 34.474598006748145" Properties=species:S:1:pos:R:3:initial_magmoms:R:1 pbc="T T T"
Si       1.35713414       1.35677781      -1.35716226       0.00000000
Si      -1.35757602      -1.35816246      -1.35667961       0.00000000
Si      -1.35762489       1.35765747       1.35771385       0.00000000
Si       1.35764101      -1.35816246       1.35764490       0.00000000
Si      -2.71489140       2.71432125      -0.00031027       0.00000000
Si      -2.71368594       0.00338832      -2.71553113       0.00000000
Si       2.71465424       2.71492398      -0.00037922       0.00000000
Si      -0.00066789      -2.71645524      -2.71325580       0.00000000
Si       2.71583526      -0.00052128       2.71415214       0.00000000
Si      -2.71518462      -2.71505430       0.00000000       0.00000000
