10
Lattice="16.28999089631971 0.0 0.0 0.0 16.28999089631971 0.0 0.0 0.0 34.474598006748145" Properties=species:S:1:pos:R:3:initial_magmoms:R:1 pbc="T T T"
Si      -1.74671154      -1.00287756      -1.16706922       0.00000000
Si       1.81263132      -1.41413490      -0.40011241       0.00000000
Si      -0.60794280      -0.54463986       2.20934032       0.00000000
Si       0.03181437       2.34681885      -0.52804771       0.00000000
Si      -3.18256101       0.73318032      -0.31420166       0.00000000
Si      -2.61037476       0.65896308       1.99225366       0.00000000
Si      -1.06010433      -0.54117009      -3.39275051       0.00000000
Si      -2.19400236       2.53718379      -1.40422011       0.00000000
Si       3.64943960      -0.18658566       0.29879151       0.00000000
Si      -0.24290019      -2.89701360       2.25233017       0.00000000
