10
Lattice="16.28999089631971 0.0 0.0 0.0 16.28999089631971 0.0 0.0 0.0 34.474598006748145" Properties=species:S:1:pos:R:3:initial_magmoms:R:1 pbc="T T T"
Si      -1.35570267      -1.35537687       1.38524873       0.00000000
Si       1.36218609       1.35646830       1.38745510       0.00000000
Si      -1.27778760       1.49977143      -1.44986106       0.00000000
Si       1.23312042      -1.56716316      -1.42550474       0.00000000
Si       2.56254732      -0.15732882      -2.73568986       0.00000000
Si       2.71862181       2.68996770       0.02893455       0.00000000
Si      -2.70029556      -2.72360655      -0.00575726       0.00000000
Si       2.73035061      -2.71300176       0.01052855       0.00000000
Si      -2.72132595       2.72310156       0.00397837       0.00000000
Si       0.00319284      -2.71275741       2.74585845       0.00000000
