10
Lattice="16.28999089631971 0.0 0.0 0.0 16.28999089631971 0.0 0.0 0.0 34.474598006748145" Properties=species:S:1:pos:R:3:initial_magmoms:R:1 pbc="T T T"
Si      -1.35428544       1.35731538      -1.35485246       0.00000000
Si      -1.37021706      -1.34151408       1.35636934       0.00000000
Si       1.35731538      -1.35565380      -1.35619697       0.00000000
Si       1.35298224       1.36647036       1.35716226       0.00000000
Si       2.61275310      -0.00146610       2.79251295       0.00000000
Si      -2.65947282       0.11994327       2.76176159       0.00000000
Si       0.00045612      -2.71454931      -2.71225604       0.00000000
Si      -2.71456560      -0.00037467      -2.71256631       0.00000000
Si      -2.71339272      -2.71410948       0.00303377       0.00000000
Si       2.71549681       0.00009774      -2.71249736       0.00000000
