10
Lattice="16.28999089631971 0.0 0.0 0.0 16.28999089631971 0.0 0.0 0.0 34.474598006748145" Properties=species:S:1:pos:R:3:initial_magmoms:R:1 pbc="T T T"
Si       1.36031812       1.34933328      -1.35533510       0.00000000
Si       1.25977086      -1.36793646       1.43535069       0.00000000
Si      -1.35298224      -1.36647036      -1.35716226       0.00000000
Si      -1.18363140       1.48214565       1.41504514       0.00000000
Si      -2.29646646      -0.10410939       2.66509476       0.00000000
Si      -0.75367314      -2.03621742       2.77155238       0.00000000
Si       2.36689857       0.46177263       2.57487469       0.00000000
Si       0.71092818       2.28234303       2.72042652       0.00000000
Si      -2.69570178       2.71956663       0.02289115       0.00000000
Si      -2.70726768      -0.00915498      -2.71201472       0.00000000
