10
Lattice="16.28999089631971 0.0 0.0 0.0 16.28999089631971 0.0 0.0 0.0 34.474598006748145" Properties=species:S:1:pos:R:3:initial_magmoms:R:1 pbc="T T T"
Si       2.33764336       0.47410416       0.16868430       0.00000000
Si      -2.22581673       0.19036494      -0.87617240       0.00000000
Si      -0.03181437      -2.34681885       0.52804771       0.00000000
Si      -0.21046680       1.09419930       2.14835472       0.00000000
Si       0.37268262       1.43057151      -2.91582865       0.00000000
Si      -3.21437538      -1.61363853       0.21384605       0.00000000
Si       2.02865301      -0.38999889      -3.06138049       0.00000000
Si       1.33098978      -0.11758122       3.44825464       0.00000000
Si       3.10634729      -0.63884493       2.04241423       0.00000000
Si       0.45766755       3.35688030       1.67660406       0.00000000
