10
Lattice="16.28999089631971 0.0 0.0 0.0 16.28999089631971 0.0 0.0 0.0 34.474598006748145" Properties=species:S:1:pos:R:3:initial_magmoms:R:1 pbc="T T T"
Si       1.34879571       1.33817463      -1.38184608       0.00000000
Si      -1.37655387      -1.37169945      -1.37171055       0.00000000
Si      -0.86710041       1.81397295       1.28631692       0.00000000
Si       1.51207038      -1.23742098       1.39215399       0.00000000
Si       2.69431713       2.69374698       0.00010342       0.00000000
Si       2.69570178      -2.71956663      -0.02289115       0.00000000
Si      -0.01397682       2.70107748      -2.73335451       0.00000000
Si       2.70011637      -0.01317861      -2.73697434       0.00000000
Si      -2.72577312       2.71314837       0.00854971       0.00000000
Si      -2.74069476      -2.70409113       0.00413695       0.00000000
