10
Lattice="16.28999089631971 0.0 0.0 0.0 16.28999089631971 0.0 0.0 0.0 34.474598006748145" Properties=species:S:1:pos:R:3:initial_magmoms:R:1 pbc="T T T"
Si       0.75758274      -2.16855738      -0.49360757       0.00000000
Si       1.75448187       1.57753989       0.34143661       0.00000000
Si      -1.44836019       1.08217728      -1.65595377       0.00000000
Si      -1.07452098      -0.49458069       2.35303053       0.00000000
Si      -1.20738222       3.38877612      -1.06295587       0.00000000
Si       2.98339947      -2.35892232       0.38256483       0.00000000
Si      -3.05303922      -1.64108718       1.75644728       0.00000000
Si       0.65119275      -1.76158431       3.42808699       0.00000000
Si       1.01092482       3.68708432       1.00062577       0.00000000
Si       2.77293267      -1.26472302       2.53091955       0.00000000
