10
Lattice="16.28999089631971 0.0 0.0 0.0 16.28999089631971 0.0 0.0 0.0 34.474598006748145" Properties=species:S:1:pos:R:3:initial_magmoms:R:1 pbc="T T T"
Si      -0.49835997       1.16356212       1.97384421       0.00000000
Si       0.59282568      -2.27483334      -0.40711076       0.00000000
Si      -1.01675664       0.56039229      -2.10022816       0.00000000
Si       2.38456834       0.33728445       0.04116269       0.00000000
Si       2.67402698      -1.50395796      -1.39766993       0.00000000
Si       2.20886766       2.34505953      -1.22908906       0.00000000
Si       0.99774621       1.43659881      -3.00580741       0.00000000
Si      -2.03914962      -1.52492319      -2.68215970       0.00000000
Si       0.61115193       0.07154568       3.74925253       0.00000000
Si       1.28780336      -3.19253049       1.63361421       0.00000000
