10
Lattice="16.28999089631971 0.0 0.0 0.0 16.28999089631971 0.0 0.0 0.0 34.474598006748145" Properties=species:S:1:pos:R:3:initial_magmoms:R:1 pbc="T T T"
Si       1.53635877      -1.62409671      -1.06312825       0.00000000
Si      -0.88091433       1.17587736      -2.00059651       0.00000000
Si      -1.59670996      -1.01573037       1.62401100       0.00000000
Si       1.05985998       1.52449965       1.67060345       0.00000000
Si       0.66471345       3.17303136      -1.65588482       0.00000000
Si      -0.20777895      -2.87257860      -2.26029381       0.00000000
Si       2.18219211       3.13040043       0.27941677       0.00000000
Si       2.37899160       0.22571424       3.17433454       0.00000000
Si      -3.33373940      -2.17779381       0.58720826       0.00000000
Si      -0.34228548      -2.46902643       3.16422314       0.00000000
