10
Lattice="16.28999089631971 0.0 0.0 0.0 16.28999089631971 0.0 0.0 0.0 34.474598006748145" Properties=species:S:1:pos:R:3:initial_magmoms:R:1 pbc="T T T"
Si      -1.35693094      -1.35487188       1.35705883       0.00000000
Si       1.35684297      -1.35721764      -1.35740358       0.00000000
Si      -1.35792300       1.35739683      -1.35716226       0.00000000
Si       1.35749457       1.36000323       1.35619697       0.00000000
Si      -0.00394218       2.71446786       2.71394530       0.00000000
Si       2.71446786       0.00006516      -2.71442794       0.00000000
Si      -0.00022806      -2.71427238      -2.71473821       0.00000000
Si      -2.71509362       0.00034209      -2.71401424       0.00000000
Si       0.00078192       2.71448415      -2.71470374       0.00000000
Si       2.71476108       2.71456560       0.00013790       0.00000000
