10
Lattice="16.28999089631971 0.0 0.0 0.0 16.28999089631971 0.0 0.0 0.0 34.474598006748145" Properties=species:S:1:pos:R:3:initial_magmoms:R:1 pbc="T T T"
Si       0.76870392      -1.11294909       1.87372992       0.00000000
Si      -2.33764336      -0.47410416      -0.16868430       0.00000000
Si       0.19504994       2.38133736       0.40276695       0.00000000
Si       1.79189511      -1.88990064      -1.46072401       0.00000000
Si      -2.54811016       0.62009514       1.97967042       0.00000000
Si       1.27998186      -3.00750867       0.65815492       0.00000000
Si      -0.30899035      -0.86410305      -3.23006479       0.00000000
Si      -1.00665358      -0.59168538       3.27957034       0.00000000
Si      -2.36945773      -2.82092301       0.35936341       0.00000000
Si      -1.87997581       2.88277614       1.50791976       0.00000000
