10
Lattice="16.28999089631971 0.0 0.0 0.0 16.28999089631971 0.0 0.0 0.0 34.474598006748145" Properties=species:S:1:pos:R:3:initial_magmoms:R:1 pbc="T T T"
Si      -0.99425038      -1.70372223      -1.20385364       0.00000000
Si       0.34192873      -1.07735544       2.02603878       0.00000000
Si      -1.33435204       1.86320133       0.41790131       0.00000000
Si       2.11222819       0.66088530      -0.76254406       0.00000000
Si       2.70855622      -1.44775746      -1.57590370       0.00000000
Si       0.78110713      -2.22498594      -2.60969405       0.00000000
Si      -0.12323059       2.77166205       2.19461966       0.00000000
Si       0.05247009       0.76388697       3.46487141       0.00000000
Si      -2.53570696      -0.49194171      -2.50375355       0.00000000
Si      -3.34885489       0.98699481       1.32348056       0.00000000
