10
Lattice="16.28999089631971 0.0 0.0 0.0 16.28999089631971 0.0 0.0 0.0 34.474598006748145" Properties=species:S:1:pos:R:3:initial_magmoms:R:1 pbc="T T T"
Si       0.80356941      -2.09730492      -0.71865787       0.00000000
Si      -0.24474096       1.27530405      -2.04227633       0.00000000
Si      -2.24872031      -0.80308071       0.58696483       0.00000000
Si       1.70030133       1.41592095       1.11308197       0.00000000
Si      -3.17197970       1.36402916       0.93991597       0.00000000
Si      -1.54894279       2.69927648       2.05865177       0.00000000
Si      -0.82486207      -2.98421397      -2.18975874       0.00000000
Si       2.72139111      -1.75901049      -1.97698140       0.00000000
Si       0.60530382       3.44662910       1.52877690       0.00000000
Si       1.07991297      -3.59262918       1.12835422       0.00000000
