10
Lattice="16.28999089631971 0.0 0.0 0.0 16.28999089631971 0.0 0.0 0.0 34.474598006748145" Properties=species:S:1:pos:R:3:initial_magmoms:R:1 pbc="T T T"
Si      -0.13333365       0.61390494       2.24602132       0.00000000
Si       1.20345633      -1.83837537      -0.88796272       0.00000000
Si      -2.31948260      -0.48195594       0.22687746       0.00000000
Si       1.52746443       1.72840225      -0.72551832       0.00000000
Si       1.99466163      -0.25787070       2.69650114       0.00000000
Si      -0.55469079       2.90308067       1.70259792       0.00000000
Si      -2.14378192      -2.48973102       1.49712920       0.00000000
Si       0.53636454       2.41581744      -2.74555852       0.00000000
Si      -0.08402382      -2.59273269      -2.73028626       0.00000000
Si       2.96093556      -0.84525552      -2.18496677       0.00000000
