10
Lattice="16.28999089631971 0.0 0.0 0.0 16.28999089631971 0.0 0.0 0.0 34.45770212530097" Properties=species:S:1:pos:R:3:initial_magmoms:R:1 pbc="T T T"
Si      -1.42288167       1.26139172       1.40271181       0.00000000
Si      -1.83990567      -0.89343319      -1.19413957       0.00000000
Si       1.26394925      -1.45845730       1.38340515       0.00000000
Si       1.87563874       0.88424564      -1.34697098       0.00000000
Si      -0.47277001      -0.66322943      -3.14662885       0.00000000
Si      -2.84208276       2.45157169       0.01594014       0.00000000
Si       2.66653454       2.67267586      -0.00538574       0.00000000
Si       2.62510907      -0.09019121       2.74817212       0.00000000
Si      -0.08808980       2.62290992       2.75571836       0.00000000
Si       2.63533919      -2.77574988      -0.05884690       0.00000000
