10
Lattice="16.28999089631971 0.0 0.0 0.0 16.28999089631971 0.0 0.0 0.0 34.45770212530097" Properties=species:S:1:pos:R:3:initial_magmoms:R:1 pbc="T T T"
Si      -1.91770115       1.50796597      -0.03693868       0.00000000
Si      -0.26046081      -2.21578209       1.17693793       0.00000000
Si       0.09457974       0.22773420      -2.58539729       0.00000000
Si       1.89167625       1.10336472       1.55356083       0.00000000
Si       1.19040804      -0.60455448       3.05084327       0.00000000
Si       0.43070760       3.05544104       1.76271920       0.00000000
Si       0.43269498      -1.99034478      -3.19509222       0.00000000
Si      -3.45262382       1.02456022      -1.73477398       0.00000000
Si      -3.28483682       1.27776221       1.91555060       0.00000000
Si      -1.44493114       2.17119540       3.10969017       0.00000000
