10
Lattice="16.28999089631971 0.0 0.0 0.0 16.28999089631971 0.0 0.0 0.0 34.45770212530097" Properties=species:S:1:pos:R:3:initial_magmoms:R:1 pbc="T T T"
Si      -1.34096022      -1.34566803      -1.37504226       0.00000000
Si       1.35778779      -1.35651717       1.35653158       0.00000000
Si      -1.35591444       1.35755973       1.35801326       0.00000000
Si       1.35062019       1.34982198      -1.39935219       0.00000000
Si      -2.71396287       0.00037467       2.71447592       0.00000000
Si      -2.71259451       2.71585251      -0.00285999       0.00000000
Si      -2.71622718      -2.71306855      -0.00358360       0.00000000
Si       0.00162900      -2.71495819       2.71451038       0.00000000
Si       0.00144981       2.71531494       2.71437254       0.00000000
Si       2.71625976       0.00001629       2.71451038       0.00000000
