10
Lattice="16.28999089631971 0.0 0.0 0.0 16.28999089631971 0.0 0.0 0.0 34.45770212530097" Properties=species:S:1:pos:R:3:initial_magmoms:R:1 pbc="T T T"
Si       1.35615879       1.35844102      -1.35797880       0.00000000
Si       1.35778779      -1.35766047       1.35742748       0.00000000
Si      -1.35783666       1.35751249       1.35753085       0.00000000
Si      -1.35777150      -1.35885333      -1.35842675       0.00000000
Si       2.71404432      -0.00032906       2.71482049       0.00000000
Si       2.71477737      -2.71465261       0.00017229       0.00000000
Si      -0.00162900       2.71495819      -2.71451038       0.00000000
Si       0.00298107      -2.71408246      -2.71547519       0.00000000
Si       2.71463076       2.71497448       0.00000000       0.00000000
Si      -2.71611315      -0.00019548       2.71361447       0.00000000
