10
Lattice="16.28999089631971 0.0 0.0 0.0 16.28999089631971 0.0 0.0 0.0 34.45770212530097" Properties=species:S:1:pos:R:3:initial_magmoms:R:1 pbc="T T T"
Si      -1.35676152      -1.35689270      -1.35625591       0.00000000
Si       1.35827649       1.35770797      -1.35608362       0.00000000
Si      -1.35863487       1.35697492       1.36166578       0.00000000
Si       1.36195803      -1.35673450       1.36035638       0.00000000
Si      -2.70704288       0.00352841       2.71847301       0.00000000
Si       0.00048870      -2.71421278      -2.71309761       0.00000000
Si      -2.71407038       0.00020363      -2.71337327       0.00000000
Si      -2.71313371      -2.71515760       0.00258433       0.00000000
Si      -2.71420885       2.71417627       0.00151614       0.00000000
Si       0.00052128       2.71552834      -2.71364893       0.00000000
