10
Lattice="16.28999089631971 0.0 0.0 0.0 16.28999089631971 0.0 0.0 0.0 34.45770212530097" Properties=species:S:1:pos:R:3:initial_magmoms:R:1 pbc="T T T"
Si      -1.34508159       1.27299182       1.36679998       0.00000000
Si      -1.36544409      -1.32372281      -1.35411953       0.00000000
Si       1.35112518       1.38983999      -1.35425737       0.00000000
Si       1.29419163      -1.39953647       1.45022212       0.00000000
Si       2.14221645       0.43586501       2.74238667       0.00000000
Si       0.31855095       2.19412616       2.85189331       0.00000000
Si       2.69840592      -2.65991006      -0.00151614       0.00000000
Si      -0.01314603      -2.68328621      -2.71364893       0.00000000
Si       2.70275535       0.03287811      -2.71326990       0.00000000
Si      -2.73750192      -2.68628357       0.02622233       0.00000000
