10
Lattice="16.28999089631971 0.0 0.0 0.0 16.28999089631971 0.0 0.0 0.0 34.45770212530097" Properties=species:S:1:pos:R:3:initial_magmoms:R:1 pbc="T T T"
Si      -0.58375215       1.01145750      -1.93741984       0.00000000
Si       2.09109843      -1.02804139       0.14475689       0.00000000
Si      -0.74476251       1.80225555       1.47175820       0.00000000
Si      -1.41447699      -2.06589358       0.05154875       0.00000000
Si      -1.06878690      -1.91014489       2.42430745       0.00000000
Si       1.29380067      -2.17583479       2.15667432       0.00000000
Si      -1.66166145      -0.73107469      -2.94175905       0.00000000
Si      -1.47624867       0.31036522       3.16259858       0.00000000
Si       1.21257873       1.92232914      -2.97907676       0.00000000
Si       2.77591374      -2.48347144      -1.75713704       0.00000000
