10
Lattice="16.28999089631971 0.0 0.0 0.0 16.28999089631971 0.0 0.0 0.0 34.45770212530097" Properties=species:S:1:pos:R:3:initial_magmoms:R:1 pbc="T T T"
Si      -0.36385344       2.23047893       0.38051662       0.00000000
Si       0.02497257      -0.82984911      -2.19543926       0.00000000
Si      -2.02152384      -0.94404201       0.88918150       0.00000000
Si       2.18219211      -0.07480042       1.01788109       0.00000000
Si      -1.68340860      -3.16212099       0.27948658       0.00000000
Si       1.99928799      -2.16817035       2.05829753       0.00000000
Si      -1.26247500      -2.78562651      -2.05057900       0.00000000
Si      -0.03539817       2.57080961       2.71485495       0.00000000
Si       0.72164700       3.49217201      -1.23599847       0.00000000
Si       0.54372762      -3.68887443       1.01650278       0.00000000
