10
Lattice="16.28999089631971 0.0 0.0 0.0 16.28999089631971 0.0 0.0 0.0 34.45770212530097" Properties=species:S:1:pos:R:3:initial_magmoms:R:1 pbc="T T T"
Si      -1.35720135      -1.35765747      -1.35870241       0.00000000
Si       1.35843939       1.35705474      -1.35887470       0.00000000
Si       1.36304946      -1.35853713       1.35759976       0.00000000
Si      -1.36071999       1.35993807       1.36018409       0.00000000
Si      -2.69856882      -0.01428633       2.72598480       0.00000000
Si       2.71573848       2.71430496      -0.00196409       0.00000000
Si       2.71467963      -2.71549902      -0.00141277       0.00000000
Si      -2.71547784      -2.71536544      -0.00261879       0.00000000
Si      -2.71495656       0.00016290      -2.71626772       0.00000000
Si       0.00063531      -2.71516996      -2.71623326       0.00000000
