10
Lattice="16.28999089631971 0.0 0.0 0.0 16.28999089631971 0.0 0.0 0.0 34.45770212530097" Properties=species:S:1:pos:R:3:initial_magmoms:R:1 pbc="T T T"
Si       1.01820645       2.08674900       0.11057483       0.00000000
Si      -0.46911942      -1.43956359       1.82326141       0.00000000
Si       1.10602584      -1.28614437      -1.67888356       0.00000000
Si      -2.11571262       0.75942351      -0.86716302       0.00000000
Si       0.78654636       2.41955370      -2.22300544       0.00000000
Si      -3.21996448       1.06541487       1.20908699       0.00000000
Si      -2.79719500      -1.11377988       2.01732730       0.00000000
Si       3.20367285       1.60738317       0.80789574       0.00000000
Si      -0.57839274      -2.77757532      -2.54618441       0.00000000
Si       1.64960685       0.41704029      -3.48450262       0.00000000
