10
Lattice="16.28999089631971 0.0 0.0 0.0 16.28999089631971 0.0 0.0 0.0 34.45770212530097" Properties=species:S:1:pos:R:3:initial_magmoms:R:1 pbc="T T T"
Si      -0.83957031      -1.69272648       1.36965997       0.00000000
Si       0.11095119      -0.83354301      -2.20632790       0.00000000
Si      -1.76521698       1.54096884       0.35336393       0.00000000
Si       2.15498781       0.97415829       0.21491281       0.00000000
Si      -2.07451521      -0.35417718      -2.90364881       0.00000000
Si      -1.56206439      -0.46641528       3.24981108       0.00000000
Si      -3.17531196       1.24080930      -1.54019123       0.00000000
Si       1.86808833       0.30436236      -3.27300112       0.00000000
Si       0.89412552      -3.13885494       1.96691565       0.00000000
Si       2.66815539       2.02188222      -1.92322326       0.00000000
