10
Lattice="16.28999089631971 0.0 0.0 0.0 16.28999089631971 0.0 0.0 0.0 34.45770212530097" Properties=species:S:1:pos:R:3:initial_magmoms:R:1 pbc="T T T"
Si       1.49750223       1.52818119       0.85665341       0.00000000
Si       0.31531413       0.23480406      -2.29557340       0.00000000
Si      -2.03952007       0.76225797       0.91412889       0.00000000
Si       0.52164001      -2.16762885       0.84948621       0.00000000
Si      -2.51507404      -1.86245199      -1.60703921       0.00000000
Si      -1.98340102      -0.49756176       2.88597200       0.00000000
Si       0.00399431      -1.76065578       3.06863238       0.00000000
Si       3.43040847       0.78708393      -0.37390073       0.00000000
Si      -1.44449524      -3.26894851       0.03345845       0.00000000
Si       2.64338970      -0.09097965      -2.48963929       0.00000000
