10
Lattice="16.28999089631971 0.0 0.0 0.0 16.28999089631971 0.0 0.0 0.0 34.45770212530097" Properties=species:S:1:pos:R:3:initial_magmoms:R:1 pbc="T T T"
Si      -2.32807558       0.32578371       0.19406589       0.00000000
Si       0.46911942       1.43956359      -1.82326141       0.00000000
Si       0.78701877       0.87806358       2.11573855       0.00000000
Si       0.37985022      -2.30506758      -0.68464047       0.00000000
Si      -2.64338970       0.09097965       2.48963929       0.00000000
Si      -2.75084506       2.50497846      -0.61417443       0.00000000
Si       1.57514526       0.15341922      -3.50214497       0.00000000
Si      -1.64659320       2.19898710      -2.69042443       0.00000000
Si       1.52233308      -0.93559986       3.42451172       0.00000000
Si      -1.14588747       1.61916084       3.34629270       0.00000000
