10
Lattice="16.28999089631971 0.0 0.0 0.0 16.28999089631971 0.0 0.0 0.0 34.45770212530097" Properties=species:S:1:pos:R:3:initial_magmoms:R:1 pbc="T T T"
Si       1.36238157       1.34284986       1.36745123       0.00000000
Si       1.29826413      -1.28761047      -1.48180607       0.00000000
Si      -1.35237951      -1.37029851       1.36228257       0.00000000
Si      -1.21616253       1.47152457      -1.47386012       0.00000000
Si      -0.71679258      -2.06993772      -2.64630717       0.00000000
Si      -2.41121322      -0.23324022      -2.56491390       0.00000000
Si       2.29219848       0.48231432      -2.64449918       0.00000000
Si       0.59347728       2.22275421      -2.95294200       0.00000000
Si       2.71204065       2.70658350       0.00529271       0.00000000
Si       0.00558747       2.70097974       2.72201871       0.00000000
