10
Lattice="16.28999089631971 0.0 0.0 0.0 16.28999089631971 0.0 0.0 0.0 34.45770212530097" Properties=species:S:1:pos:R:3:initial_magmoms:R:1 pbc="T T T"
Si       1.35679410      -1.35812988      -1.35456749       0.00000000
Si       1.35664749       1.35746199       1.35811663       0.00000000
Si      -1.35852084      -1.35729909       1.35801326       0.00000000
Si      -1.35873261       1.35654975      -1.36135566       0.00000000
Si      -0.00558747      -2.70097974      -2.72201871       0.00000000
Si       2.70645318       0.00560376      -2.71672601       0.00000000
Si       2.71277370      -2.71189404       0.00044795       0.00000000
Si       2.71319724       0.00055386       2.71523399       0.00000000
Si      -0.00166158      -2.71448415       2.71464821       0.00000000
Si      -2.71507059      -2.71461447       0.00058578       0.00000000
