10
Lattice="16.28999089631971 0.0 0.0 0.0 16.28999089631971 0.0 0.0 0.0 34.45770212530097" Properties=species:S:1:pos:R:3:initial_magmoms:R:1 pbc="T T T"
Si      -1.43668026      -1.74296484       0.60666264       0.00000000
Si      -0.06030558       1.55413116       1.85771913       0.00000000
Si       2.21183991      -1.08119988       0.27145793       0.00000000
Si      -0.13980078       0.47442996      -2.56727253       0.00000000
Si      -0.28953846       3.20803857       0.15423276       0.00000000
Si      -1.20502017      -2.07576954       2.94024291       0.00000000
Si      -0.57361977      -3.74547825      -0.65483454       0.00000000
Si       1.99093122      -3.30462198      -0.78784134       0.00000000
Si       2.21879574       1.92391416       2.66692426       0.00000000
Si       2.15329365       3.30139656      -0.55628545       0.00000000
