10
Lattice="16.28999089631971 0.0 0.0 0.0 16.28999089631971 0.0 0.0 0.0 34.45770212530097" Properties=species:S:1:pos:R:3:initial_magmoms:R:1 pbc="T T T"
Si      -1.34514675      -0.56146743       1.86505863       0.00000000
Si       1.76521698      -1.54096884      -0.35336393       0.00000000
Si      -1.41009498      -0.30015954      -1.89355516       0.00000000
Si       0.58103172       2.22456240       0.62368476       0.00000000
Si      -0.81425565       3.09553983      -1.06887852       0.00000000
Si       0.92564667      -3.23369532       1.01629603       0.00000000
Si       0.20315259      -2.00738412       2.89644714       0.00000000
Si      -1.17144648       1.78215858      -3.02566360       0.00000000
Si      -0.30929823      -1.89514602      -3.25701274       0.00000000
Si      -3.59381835      -0.97370217      -1.06684551       0.00000000
