10
Lattice="16.28999089631971 0.0 0.0 0.0 16.28999089631971 0.0 0.0 0.0 34.45770212530097" Properties=species:S:1:pos:R:3:initial_magmoms:R:1 pbc="T T T"
Si       0.84206268       1.73320713       1.36443759       0.00000000
Si       1.69872120      -1.74043989       0.30844282       0.00000000
Si      -1.80963981      -0.75122964       1.47908188       0.00000000
Si      -0.29180277       0.40321008      -2.48626243       0.00000000
Si       2.11856337       0.48382929       2.95823470       0.00000000
Si       1.80147852      -0.94366341      -3.10116047       0.00000000
Si      -0.59347728      -2.22275421       2.95294200       0.00000000
Si       2.78078445       2.57650785       0.24946274       0.00000000
Si       0.70478685      -3.51036468       1.47113593       0.00000000
Si      -3.00469050      -2.45599443       0.38802810       0.00000000
