10
Lattice="16.28999089631971 0.0 0.0 0.0 16.28999089631971 0.0 0.0 0.0 34.45770212530097" Properties=species:S:1:pos:R:3:initial_magmoms:R:1 pbc="T T T"
Si       1.34830701       1.36374993       1.39379071       0.00000000
Si      -1.36966320      -1.35351981       1.39027602       0.00000000
Si      -1.36230012       1.39416336      -1.41584710       0.00000000
Si       1.41902190      -1.45508796      -1.55889144       0.00000000
Si       2.68255575       2.70878107       0.03145645       0.00000000
Si       2.69552259      -2.70446580       0.03490567       0.00000000
Si      -2.72505636      -2.69309538       0.00165052       0.00000000
Si      -2.73369006       2.71145594       0.02640495       0.00000000
Si       2.70308115       0.00599472       2.75283770       0.00000000
Si      -0.01093059      -2.71006956       2.75163168       0.00000000
