10
Lattice="16.28999089631971 0.0 0.0 0.0 16.28999089631971 0.0 0.0 0.0 34.45770212530097" Properties=species:S:1:pos:R:3:initial_magmoms:R:1 pbc="T T T"
Si      -1.09488348      -0.34855713      -2.02728558       0.00000000
Si      -1.20003543      -0.58479471       1.95816339       0.00000000
Si      -0.32835753       2.32319413       0.52772000       0.00000000
Si       1.93595247      -1.47403323       0.32414379       0.00000000
Si       0.71848674       0.07732863       3.18451369       0.00000000
Si       1.00268208       2.31181231       2.45673216       0.00000000
Si      -0.62136576      -2.51232525      -2.84145262       0.00000000
Si       3.81148533      -0.36611775      -0.53933226       0.00000000
Si      -2.64432312       2.66247737       0.97260364       0.00000000
Si       2.41942338      -1.45958400       2.65817200       0.00000000
