10
Lattice="16.28999089631971 0.0 0.0 0.0 16.28999089631971 0.0 0.0 0.0 34.45770212530097" Properties=species:S:1:pos:R:3:initial_magmoms:R:1 pbc="T T T"
Si      -0.08241111       0.19166814       2.30473915       0.00000000
Si       1.70093664      -1.53691263      -0.52634169       0.00000000
Si       0.28419534       2.23448368      -0.72778153       0.00000000
Si      -1.91852217      -0.66212334      -1.22635030       0.00000000
Si      -0.71848674      -0.07732863      -3.18451369       0.00000000
Si       0.90044604      -3.06646218       1.07297899       0.00000000
Si       1.21746573      -1.55136186      -2.86036991       0.00000000
Si       1.40642973       2.00408769       2.50359466       0.00000000
Si      -1.04684427       2.24586550      -2.65679369       0.00000000
Si      -0.00110772       3.45439943       1.25818924       0.00000000
