10
Lattice="16.28999089631971 0.0 0.0 0.0 16.28999089631971 0.0 0.0 0.0 34.45770212530097" Properties=species:S:1:pos:R:3:initial_magmoms:R:1 pbc="T T T"
Si       1.45556037       1.52070408       1.04179475       0.00000000
Si       1.20842478      -0.83088774      -1.87325957       0.00000000
Si      -2.22713622       0.52675344      -0.73701620       0.00000000
Si       0.17803341      -2.26670463       1.51517492       0.00000000
Si      -1.80620262       0.90324792      -3.06708178       0.00000000
Si      -0.48949821      -1.02322377      -3.51272349       0.00000000
Si      -2.56525146       2.74483242      -0.12732128       0.00000000
Si       2.78537823      -2.37693906      -0.99662068       0.00000000
Si      -0.54372762       3.68887443      -1.01650278       0.00000000
Si       3.39525954       0.44579214       1.84166183       0.00000000
