10
Lattice="16.28999089631971 0.0 0.0 0.0 16.28999089631971 0.0 0.0 0.0 34.45770212530097" Properties=species:S:1:pos:R:3:initial_magmoms:R:1 pbc="T T T"
Si       1.35601218       1.35594702       1.35728965       0.00000000
Si       1.35711990      -1.35735936      -1.35756531       0.00000000
Si      -1.35759231       1.35747828      -1.35766868       0.00000000
Si      -1.35817875      -1.35782526       1.35715181       0.00000000
Si      -2.70980892      -0.00086337       2.71616435       0.00000000
Si      -2.71441899       2.71472850      -0.00031012       0.00000000
Si       0.00102627       2.71414206      -2.71516507       0.00000000
Si      -2.71443528      -2.71515667      -0.00024120       0.00000000
Si       0.00118917       2.71347417       2.71612989       0.00000000
Si       2.71492398       2.71495656       0.00017229       0.00000000
