10
Lattice="16.28999089631971 0.0 0.0 0.0 16.28999089631971 0.0 0.0 0.0 34.45770212530097" Properties=species:S:1:pos:R:3:initial_magmoms:R:1 pbc="T T T"
Si       1.34545626      -1.35048335      -1.49281186       0.00000000
Si      -1.36770840       1.34913780      -1.52216984       0.00000000
Si       0.76172040       1.73582982       1.55897069       0.00000000
Si      -1.94631291      -0.94312584       1.21983779       0.00000000
Si       0.12624750      -1.22377159       2.77815379       0.00000000
Si      -1.14375348       3.28613283       1.21949322       0.00000000
Si       2.66051538       2.69190621       0.05757885       0.00000000
Si      -2.86458021       2.47293603      -0.15578336       0.00000000
Si       2.76304464      -2.77463402      -0.03390640       0.00000000
Si       2.68869708       0.01436778      -2.87625492       0.00000000
