10
Lattice="16.28999089631971 0.0 0.0 0.0 16.28999089631971 0.0 0.0 0.0 34.45770212530097" Properties=species:S:1:pos:R:3:initial_magmoms:R:1 pbc="T T T"
Si      -2.07256041       0.28064575      -1.55831599       0.00000000
Si      -2.46954771      -1.04598742       0.46159564       0.00000000
Si      -1.70360820       0.97937272       2.30746131       0.00000000
Si      -0.12624750       1.22377159      -2.77815379       0.00000000
Si       0.63547290       2.95960141      -1.21918310       0.00000000
Si       0.96058872      -3.09613183       0.66083018       0.00000000
Si       1.07116524      -2.83032790      -1.65121401       0.00000000
Si       2.49035004      -1.74238396       1.82956717       0.00000000
Si      -1.33250571      -3.04421560       1.27472894       0.00000000
Si       1.55375649      -0.19141239       3.51627264       0.00000000
