10
Lattice="16.28999089631971 0.0 0.0 0.0 16.28999089631971 0.0 0.0 0.0 34.45770212530097" Properties=species:S:1:pos:R:3:initial_magmoms:R:1 pbc="T T T"
Si       0.96358608      -1.63742356       1.48047600       0.00000000
Si      -2.24313300       0.38222856       0.99417418       0.00000000
Si       0.04479750       2.60244153       0.00747733       0.00000000
Si      -0.76593951      -2.02536014      -1.84586568       0.00000000
Si       1.70360820      -0.97937272      -2.30746131       0.00000000
Si      -1.23069321       2.21042268       2.08551913       0.00000000
Si       3.22064703       1.17006183       0.97270702       0.00000000
Si       3.25736469      -1.17078511       1.20881132       0.00000000
Si       0.48650085      -0.79750953       3.59941912       0.00000000
Si       0.52085646       1.59454665       3.56565055       0.00000000
