10
Lattice="16.28999089631971 0.0 0.0 0.0 16.28999089631971 0.0 0.0 0.0 34.45770212530097" Properties=species:S:1:pos:R:3:initial_magmoms:R:1 pbc="T T T"
Si       0.29085795       0.06033164       2.32620631       0.00000000
Si      -1.48884084      -1.81241955      -0.19885551       0.00000000
Si      -1.40753745       1.45031173      -1.24540542       0.00000000
Si       2.34896913       0.26037122      -0.67816241       0.00000000
Si      -1.12223439       0.23039599      -3.23137620       0.00000000
Si      -1.40642973      -2.00408769      -2.50359466       0.00000000
Si       0.80536131       2.37175558       2.54632224       0.00000000
Si       2.23132275      -1.38384594       2.62819378       0.00000000
Si      -0.69312321       3.62776345      -0.87298637       0.00000000
Si      -0.44807274      -3.77381700       0.59587738       0.00000000
