10
Lattice="16.28999089631971 0.0 0.0 0.0 16.28999089631971 0.0 0.0 0.0 34.45770212530097" Properties=species:S:1:pos:R:3:initial_magmoms:R:1 pbc="T T T"
Si      -1.81078011      -0.79153273       1.45549557       0.00000000
Si       0.91145808       1.92612960       1.32319170       0.00000000
Si      -1.25524224       0.07620462      -2.26652554       0.00000000
Si       1.90641870      -1.96443977       0.09307031       0.00000000
Si       2.39278923       0.90285696      -1.48206105       0.00000000
Si       0.65019906       1.40023953      -2.98641625       0.00000000
Si      -0.44992980      -2.10161424       2.90089361       0.00000000
Si       2.28537297       0.63579870       2.87905430       0.00000000
Si       0.83266335      -3.54352202       1.53889704       0.00000000
Si       3.59741844      -0.82151610       1.50825723       0.00000000
