10
Lattice="16.28999089631971 0.0 0.0 0.0 16.28999089631971 0.0 0.0 0.0 34.45770212530097" Properties=species:S:1:pos:R:3:initial_magmoms:R:1 pbc="T T T"
Si      -1.35062019      -1.34982198       1.39935219       0.00000000
Si       1.36583505       1.36484136       1.39470039       0.00000000
Si       1.34962650      -1.40608764      -1.54164879       0.00000000
Si      -1.41257106       1.44871857      -1.44759644       0.00000000
Si       2.56904703       0.36168687      -2.55553072       0.00000000
Si      -2.69158041      -2.69549001       0.02430992       0.00000000
Si       2.72354139      -2.69641854       0.01421381       0.00000000
Si      -2.71083519       2.73632904       0.03420963       0.00000000
Si       2.73305475       2.72904741       0.02907543       0.00000000
Si       0.00716760      -2.70633915       2.75588376       0.00000000
