10
Lattice="16.28999089631971 0.0 0.0 0.0 16.28999089631971 0.0 0.0 0.0 34.45770212530097" Properties=species:S:1:pos:R:3:initial_magmoms:R:1 pbc="T T T"
Si      -1.35682668       1.35725022       1.35735856       0.00000000
Si       1.35759231      -1.35747828       1.35766868       0.00000000
Si       1.35861858       1.35666378      -1.35749639       0.00000000
Si      -1.35847197      -1.35653346      -1.35797880       0.00000000
Si       2.71360449      -0.00153126       2.71495833       0.00000000
Si       0.00047241       2.71450044       2.71426917       0.00000000
Si       2.71208952       0.00242721      -2.71699133       0.00000000
Si       2.71471221      -2.71483764       0.00010337       0.00000000
Si      -2.71463076      -2.71497448       0.00000000       0.00000000
Si      -2.71480995       2.71529865      -0.00013783       0.00000000
