10
Lattice="16.28999089631971 0.0 0.0 0.0 16.28999089631971 0.0 0.0 0.0 34.45770212530097" Properties=species:S:1:pos:R:3:initial_magmoms:R:1 pbc="T T T"
Si       1.72683774       1.53383382       0.01385200       0.00000000
Si      -1.78696413       1.45508796       0.26701288       0.00000000
Si       0.86100795      -1.45108062       1.62798950       0.00000000
Si      -0.01557324      -0.52408188      -2.34746673       0.00000000
Si      -3.13996266      -0.46924974       0.75486530       0.00000000
Si      -1.31997870       2.57707800      -1.77719144       0.00000000
Si       3.08449521      -0.72741366       1.42899616       0.00000000
Si       1.01734308       3.06887310      -1.64060103       0.00000000
Si       2.25966735      -0.09008370      -2.84014323       0.00000000
Si       0.83970063      -3.67593624       0.78691098       0.00000000
