10
Lattice="16.28999089631971 0.0 0.0 0.0 16.28999089631971 0.0 0.0 0.0 34.45770212530097" Properties=species:S:1:pos:R:3:initial_magmoms:R:1 pbc="T T T"
Si      -0.37657593      -1.34887716      -1.84851892       0.00000000
Si       1.54588842      -1.34151408       1.13822472       0.00000000
Si      -1.44179532       1.51544241       1.08346589       0.00000000
Si       0.93599082       1.60270794      -1.64494270       0.00000000
Si       1.82307906      -0.46981989      -2.32258825       0.00000000
Si      -2.43572967      -0.25448238       2.24615900       0.00000000
Si       0.39170934       2.48453451       2.37742224       0.00000000
Si       2.83393872      -1.96892343      -0.69704525       0.00000000
Si      -1.78492788       0.09181044      -3.04664835       0.00000000
Si      -1.33903800       2.31221889      -2.32613740       0.00000000
