10
Lattice="16.28999089631971 0.0 0.0 0.0 16.28999089631971 0.0 0.0 0.0 34.45770212530097" Properties=species:S:1:pos:R:3:initial_magmoms:R:1 pbc="T T T"
Si       1.73784978       0.96430284       1.23733680       0.00000000
Si       1.05171498      -1.43483949      -1.56799865       0.00000000
Si      -1.10470635      -1.70427609       1.24042077       0.00000000
Si      -1.85614776       1.64357955      -0.11251566       0.00000000
Si       0.22530699       2.26791009       2.59189051       0.00000000
Si      -2.51836884      -0.44909901       2.59625630       0.00000000
Si       2.17997667       1.85220558      -2.28478817       0.00000000
Si      -1.71150885       2.18277855      -2.52175392       0.00000000
Si       0.95563656      -0.35069112      -3.63267086       0.00000000
Si      -0.56042487      -2.58610266      -2.78194418       0.00000000
