10
Lattice="16.28999089631971 0.0 0.0 0.0 16.28999089631971 0.0 0.0 0.0 34.45770212530097" Properties=species:S:1:pos:R:3:initial_magmoms:R:1 pbc="T T T"
Si      -1.35597960       1.35376416      -1.35501544       0.00000000
Si       1.35855342       1.35457866       1.35735856       0.00000000
Si      -1.35669636      -1.35992178       1.35704844       0.00000000
Si       1.35830907      -1.36057338      -1.36197590       0.00000000
Si      -2.71277370       2.71189404      -0.00044795       0.00000000
Si       0.00042354       2.71244790       2.71478604       0.00000000
Si      -2.71443528      -0.00259011       2.71420026       0.00000000
Si       2.71629234       2.71262709       0.00010337       0.00000000
Si       2.71601541      -0.00272043       2.71454483       0.00000000
Si      -2.71406061      -2.71767699       0.00068915       0.00000000
