10
Lattice="16.28999089631971 0.0 0.0 0.0 16.28999089631971 0.0 0.0 0.0 34.45770212530097" Properties=species:S:1:pos:R:3:initial_magmoms:R:1 pbc="T T T"
Si      -0.55416951       2.09676735       0.93328738       0.00000000
Si      -2.06804808      -1.03817799       0.58326585       0.00000000
Si       1.75198950      -1.10892546       1.41617789       0.00000000
Si       1.39821957      -0.06387309      -2.30994227       0.00000000
Si       2.97626445      -0.69379110      -0.56045484       0.00000000
Si       1.62601893       3.02681232       0.41239001       0.00000000
Si      -1.54230462      -1.37420811       2.88269851       0.00000000
Si       0.29509335      -2.73944043       2.42740864       0.00000000
Si       3.46344948       1.65771927      -0.46049299       0.00000000
Si      -2.12659434       3.34441845      -0.24447753       0.00000000
