10
Lattice="16.28999089631971 0.0 0.0 0.0 16.28999089631971 0.0 0.0 0.0 34.45770212530097" Properties=species:S:1:pos:R:3:initial_magmoms:R:1 pbc="T T T"
Si      -1.35702216      -1.35718506      -1.35660049       0.00000000
Si      -1.35698958       1.35699214       1.35725519       0.00000000
Si       1.35739683      -1.35764118       1.35711736       0.00000000
Si       1.35944937       1.35581294      -1.35746193       0.00000000
Si       2.71459818       0.00094482      -2.71233954       0.00000000
Si      -2.71179630       0.00057015      -2.71564748       0.00000000
Si      -0.00073305       2.71432355       2.71464821       0.00000000
Si       2.71456560       2.71478944      -0.00006892       0.00000000
Si      -2.71477737       2.71465261      -0.00017229       0.00000000
Si      -2.71438641      -2.71578735       0.00031012       0.00000000
