10
Lattice="16.28999089631971 0.0 0.0 0.0 16.28999089631971 0.0 0.0 0.0 34.45770212530097" Properties=species:S:1:pos:R:3:initial_magmoms:R:1 pbc="T T T"
Si      -1.33819092      -1.39290903      -1.29133757       0.00000000
Si      -0.11057652      -0.26580393       2.31204419       0.00000000
Si       1.56563190       1.27946547      -1.16084618       0.00000000
Si      -1.07116524       2.83032790       1.65121401       0.00000000
Si      -2.58753618       0.01519857      -2.65100479       0.00000000
Si       0.14804352       2.70361613      -2.61975164       0.00000000
Si       0.13146030      -2.72929176      -2.62957209       0.00000000
Si      -2.40367095      -0.21388770       2.92594295       0.00000000
Si       2.83351518      -0.01604565      -2.65176286       0.00000000
Si      -3.23514513      -2.15347284       0.01767681       0.00000000
