10
Lattice="16.28999089631971 0.0 0.0 0.0 16.28999089631971 0.0 0.0 0.0 34.45770212530097" Properties=species:S:1:pos:R:3:initial_magmoms:R:1 pbc="T T T"
Si      -0.82530027      -1.91682801      -1.06849948       0.00000000
Si      -0.39830679      -0.06700077       2.31070034       0.00000000
Si       1.89695421       0.76056381      -1.30901438       0.00000000
Si      -1.83254355       1.69577271      -0.07842577       0.00000000
Si      -2.04454161      -0.58964913      -2.67243750       0.00000000
Si       0.64760895       2.16867141      -2.66868161       0.00000000
Si       0.83147418       1.93958514       2.90826614       0.00000000
Si      -0.75660534       3.42904500      -1.21694335       0.00000000
Si      -3.46973742       0.64739718      -1.34474703       0.00000000
Si       3.23514513       2.15347284      -0.01767681       0.00000000
