10
Lattice="16.28999089631971 0.0 0.0 0.0 16.28999089631971 0.0 0.0 0.0 34.45770212530097" Properties=species:S:1:pos:R:3:initial_magmoms:R:1 pbc="T T T"
Si       1.41920109      -1.19017998       1.38677167       0.00000000
Si       1.39747076       1.36984239      -1.33403655       0.00000000
Si      -1.31818680       1.52862102       1.34621149       0.00000000
Si      -0.90753219      -1.93067451      -1.43313595       0.00000000
Si      -0.49114350       1.67826096      -2.94489956       0.00000000
Si       1.00217709      -3.34500489      -1.21007971       0.00000000
Si       0.04315221      -2.54570509       2.73236981       0.00000000
Si       2.84208276      -2.45157169      -0.01594014       0.00000000
Si      -2.72036484      -2.63260572      -0.02011986       0.00000000
Si      -2.67822261       0.17374914       2.73333463       0.00000000
