10
Lattice="16.28999089631971 0.0 0.0 0.0 16.28999089631971 0.0 0.0 0.0 34.45770212530097" Properties=species:S:1:pos:R:3:initial_magmoms:R:1 pbc="T T T"
Si      -1.03806396      -1.76342671      -1.13296988       0.00000000
Si       1.91482012       1.11799899      -0.89162800       0.00000000
Si      -1.23160545       1.34452773       1.62278639       0.00000000
Si       0.70187487      -1.91525928       1.53764136       0.00000000
Si      -0.00172674      -0.17212014       3.07107888       0.00000000
Si      -3.45859506       0.63832365       1.44026384       0.00000000
Si       3.79715732      -0.51341193      -0.32297222       0.00000000
Si       3.06567116      -2.00530226       1.36786817       0.00000000
Si       1.26075056       1.55993040      -3.36913817       0.00000000
Si       2.25983744       3.02358690       1.35604917       0.00000000
