10
Lattice="16.28999089631971 0.0 0.0 0.0 16.28999089631971 0.0 0.0 0.0 34.45770212530097" Properties=species:S:1:pos:R:3:initial_magmoms:R:1 pbc="T T T"
Si       1.90970928      -1.41433038       0.22305624       0.00000000
Si      -1.81283265      -0.70193121       1.41301609       0.00000000
Si      -1.39185018      -0.65052975      -1.94382898       0.00000000
Si       0.90753219       1.93067451       1.43313595       0.00000000
Si      -0.41192523      -1.99407812       2.79663833       0.00000000
Si       0.14019174       0.10254555      -3.48691466       0.00000000
Si      -3.01746186       1.02244185      -1.57730220       0.00000000
Si       1.01998206      -3.33435842       1.32253011       0.00000000
Si       2.32673328       0.74049453       2.81990763       0.00000000
Si       3.27684494      -1.18412662      -1.72943304       0.00000000
