10
Lattice="16.28999089631971 0.0 0.0 0.0 16.28999089631971 0.0 0.0 0.0 34.45770212530097" Properties=species:S:1:pos:R:3:initial_magmoms:R:1 pbc="T T T"
Si       1.35649595      -1.35752715      -1.36518046       0.00000000
Si      -1.35976937       1.35910728      -1.36566287       0.00000000
Si       1.38699409       1.35153243       1.35649712       0.00000000
Si      -1.37154704      -1.37305152       1.39216086       0.00000000
Si      -0.02716592       2.62326015       2.70045162       0.00000000
Si      -2.71465754      -2.71135647      -0.00592673       0.00000000
Si       2.71206993      -2.71472850      -0.00503083       0.00000000
Si       2.71526277       2.71557558      -0.01185346       0.00000000
Si      -2.71552091       2.71808424      -0.00764961       0.00000000
Si      -0.00094171      -2.71412577      -2.72298697       0.00000000
