10
Lattice="16.28999089631971 0.0 0.0 0.0 16.28999089631971 0.0 0.0 0.0 34.45770212530097" Properties=species:S:1:pos:R:3:initial_magmoms:R:1 pbc="T T T"
Si       1.95133023       0.84343104       1.18489767       0.00000000
Si       1.37129220      -1.33923348      -1.53574618       0.00000000
Si      -1.32616890       1.39212711      -1.54711723       0.00000000
Si      -1.89879498      -0.95607639       1.50139184       0.00000000
Si      -2.66051538      -2.69190621      -0.05757885       0.00000000
Si       2.71567332       2.65707819      -0.22745542       0.00000000
Si      -2.90230785       2.53213389      -0.10995459       0.00000000
Si       2.79352390      -2.75095746      -0.06505618       0.00000000
Si       0.02818170      -2.67753843      -2.93383377       0.00000000
Si      -2.68692147       0.03328047      -2.93441955       0.00000000
