10
Lattice="16.28999089631971 0.0 0.0 0.0 16.28999089631971 0.0 0.0 0.0 34.45770212530097" Properties=species:S:1:pos:R:3:initial_magmoms:R:1 pbc="T T T"
Si      -1.12309776      -1.98615825      -0.42727575       0.00000000
Si      -0.84690081       1.52023167       1.54787530       0.00000000
Si       0.10189395       1.13516865      -2.03310893       0.00000000
Si       2.22916337      -0.95307903       0.28145067       0.00000000
Si       2.91204017       0.94278375       1.56362248       0.00000000
Si       1.04171345       1.21181310       3.15873831       0.00000000
Si       0.02063943      -0.65054115      -3.52381888       0.00000000
Si      -1.92700926      -1.59915672      -2.61127504       0.00000000
Si       2.12723032       2.95453359       0.52744434       0.00000000
Si       1.98608724       2.50536942      -1.85358421       0.00000000
