10
Lattice="16.28999089631971 0.0 0.0 0.0 16.28999089631971 0.0 0.0 0.0 34.45770212530097" Properties=species:S:1:pos:R:3:initial_magmoms:R:1 pbc="T T T"
Si       0.86428224       0.55363194       2.14647484       0.00000000
Si      -0.48718503      -2.35151037      -0.09996185       0.00000000
Si      -1.83743055       1.36909305       0.87288300       0.00000000
Si       1.44958194       0.61307415      -1.95978290       0.00000000
Si       2.26776187       2.13438096      -0.23017758       0.00000000
Si      -2.06522991      -1.72159236      -1.84944928       0.00000000
Si      -0.52593894      -0.26067258      -3.29136709       0.00000000
Si       0.84087351       2.92047120       1.56055574       0.00000000
Si      -1.29350745       0.72865170       3.16697471       0.00000000
Si      -1.71145998      -2.76664473       1.87667088       0.00000000
