10
Lattice="16.28999089631971 0.0 0.0 0.0 16.28999089631971 0.0 0.0 0.0 34.45770212530097" Properties=species:S:1:pos:R:3:initial_magmoms:R:1 pbc="T T T"
Si      -1.34193762      -1.37218815      -1.35414366       0.00000000
Si       1.36061291      -1.35457866       1.35880578       0.00000000
Si      -1.35694071       1.36083402       1.36008072       0.00000000
Si       1.36858806       1.37476197      -1.36291659       0.00000000
Si      -2.53659735       0.06263505      -2.71642622       0.00000000
Si       0.09684405      -2.56780899      -2.84264830       0.00000000
Si      -2.71596654      -2.71186146       0.00285999       0.00000000
Si      -2.71290402       0.00153126       2.71709470       0.00000000
Si       0.00190593      -2.71336014       2.71692242       0.00000000
Si      -2.71363707       2.71782360       0.00468625       0.00000000
