10
Lattice="16.28999089631971 0.0 0.0 0.0 16.28999089631971 0.0 0.0 0.0 34.45770212530097" Properties=species:S:1:pos:R:3:initial_magmoms:R:1 pbc="T T T"
Si       2.08482678       0.97857288       0.43561451       0.00000000
Si       0.47421819      -1.98407313      -1.21735684       0.00000000
Si      -1.83229920       1.02682386      -1.15567752       0.00000000
Si      -0.93685419       0.56951469       2.16036130       0.00000000
Si       1.08932859       3.10365455       0.81613113       0.00000000
Si       2.56754835      -0.33071958       2.37820301       0.00000000
Si      -3.70783206      -0.08109162      -0.29220148       0.00000000
Si      -0.84861126       2.92843768       2.18144943       0.00000000
Si      -0.06970491      -1.34363178      -3.51144856       0.00000000
Si      -3.22436115      -0.06664239       2.04182674       0.00000000
