10
Lattice="16.28999089631971 0.0 0.0 0.0 16.28999089631971 0.0 0.0 0.0 34.45770212530097" Properties=species:S:1:pos:R:3:initial_magmoms:R:1 pbc="T T T"
Si       0.72277101       1.42446276      -1.70069530       0.00000000
Si      -0.57418992      -1.98578358      -1.21746021       0.00000000
Si       1.97157870      -0.87192225       1.10054516       0.00000000
Si      -1.91163150       0.91862568       1.30222621       0.00000000
Si       0.78304401      -2.42786160       2.41210941       0.00000000
Si       0.13530474      -3.52082286       0.43699282       0.00000000
Si       1.96893972       3.03557634      -0.40322426       0.00000000
Si      -1.04767506       1.60080201      -3.34873919       0.00000000
Si       3.31563402      -1.91827782      -0.74197811       0.00000000
Si       2.45672748       0.70056774      -3.13089748       0.00000000
