10
Lattice="16.28999089631971 0.0 0.0 0.0 16.28999089631971 0.0 0.0 0.0 34.45770212530097" Properties=species:S:1:pos:R:3:initial_magmoms:R:1 pbc="T T T"
Si      -0.67651718      -0.33394500       2.29316136       0.00000000
Si       2.32958403       0.27557793      -0.63298834       0.00000000
Si      -0.16721685       2.32596765      -0.68422697       0.00000000
Si      -1.58062847      -1.67386266      -0.95885501       0.00000000
Si       1.97239320      -1.03780332      -2.58977342       0.00000000
Si      -1.89036653       2.74271472       0.77967486       0.00000000
Si      -0.72770688       1.97166015       2.71805952       0.00000000
Si      -0.41493888       1.79908389      -2.98204012       0.00000000
Si      -3.48051230      -1.01931417       0.35126201       0.00000000
Si      -0.15592788      -0.49363587      -3.63604768       0.00000000
