10
Lattice="16.28999089631971 0.0 0.0 0.0 16.28999089631971 0.0 0.0 0.0 34.45770212530097" Properties=species:S:1:pos:R:3:initial_magmoms:R:1 pbc="T T T"
Si      -1.34645714      -1.34312679      -1.36708598       0.00000000
Si      -1.35524102       1.35499804       1.35608362       0.00000000
Si       1.35878148      -1.35707103       1.35415399       0.00000000
Si       1.35291708       1.34726618      -1.37017683       0.00000000
Si       0.03936641      -2.53206873      -2.84510514       0.00000000
Si      -2.70996272       2.71159009      -0.00527203       0.00000000
Si      -2.71309040      -0.00140094       2.71289086       0.00000000
Si       0.00174955       2.71365077       2.71292532       0.00000000
Si       0.00189941      -2.71625976       2.71282195       0.00000000
Si       2.71630863      -0.00076563       2.71320098       0.00000000
