10
Lattice="16.28999089631971 0.0 0.0 0.0 16.28999089631971 0.0 0.0 0.0 34.45770212530097" Properties=species:S:1:pos:R:3:initial_magmoms:R:1 pbc="T T T"
Si      -1.43372755       1.27703826       1.32314204       0.00000000
Si       1.26336606      -1.41696936       1.37127948       0.00000000
Si       1.35116916       1.34837217      -1.35749639       0.00000000
Si      -1.36351765      -1.36889757      -1.35639374       0.00000000
Si      -2.16275392      -0.58267701       2.80017227       0.00000000
Si      -0.48975885      -2.45205225       2.62502367       0.00000000
Si       2.69761911       2.70024669       0.02432715       0.00000000
Si      -0.00541480       2.70438435      -2.71378676       0.00000000
Si       2.70872889      -0.01047447      -2.71557856       0.00000000
Si      -2.73541258       2.69537598      -0.00416938       0.00000000
