10
Lattice="16.28999089631971 0.0 0.0 0.0 16.28999089631971 0.0 0.0 0.0 34.45770212530097" Properties=species:S:1:pos:R:3:initial_magmoms:R:1 pbc="T T T"
Si       1.21512323      -1.41695211       1.40012059       0.00000000
Si       1.34840801       1.35344650      -1.35680724       0.00000000
Si      -1.36530943      -1.35684201      -1.35763422       0.00000000
Si      -1.31297726       1.28339950       1.51107446       0.00000000
Si       2.29303253       0.32558009       2.40445980       0.00000000
Si      -2.15243421      -0.67554630       2.80337684       0.00000000
Si      -0.47631634      -2.48500596       2.70400077       0.00000000
Si       2.69694308      -2.72282367       0.02222523       0.00000000
Si       2.72395190       2.69755070       0.01013057       0.00000000
Si       2.70704288      -0.00352841      -2.71847301       0.00000000
