10
Lattice="16.28999089631971 0.0 0.0 0.0 16.28999089631971 0.0 0.0 0.0 34.45770212530097" Properties=species:S:1:pos:R:3:initial_magmoms:R:1 pbc="T T T"
Si      -0.95808725      -1.66102614      -1.38296065       0.00000000
Si       1.69143957       1.06805385      -1.30388018       0.00000000
Si      -1.67611787       1.80945966       0.09937607       0.00000000
Si       1.93862403      -0.26676504       1.68942762       0.00000000
Si      -0.86893369      -1.99943460       1.82367490       0.00000000
Si      -2.25977228      -0.24268842      -2.71027208       0.00000000
Si       0.47631634       2.48500596      -2.70400077       0.00000000
Si      -3.52765556       1.05282270      -1.21935539       0.00000000
Si      -1.68711362      -3.52074141       0.09406958       0.00000000
Si       2.76934887       2.81058605      -0.29954097       0.00000000
