10
Lattice="16.28999089631971 0.0 0.0 0.0 16.28999089631971 0.0 0.0 0.0 34.45770212530097" Properties=species:S:1:pos:R:3:initial_magmoms:R:1 pbc="T T T"
Si       0.05118970      -2.30560515      -0.42489816       0.00000000
Si      -1.61147915       0.73708992       1.53660763       0.00000000
Si      -1.16265965       0.77105457      -1.93838466       0.00000000
Si       2.21237748      -0.07377741       0.91492142       0.00000000
Si       0.72770688      -1.97166015      -2.71805952       0.00000000
Si       0.56049003       0.35430750      -3.40228649       0.00000000
Si       1.79144388      -0.45027189       3.24498700       0.00000000
Si      -2.01296249       2.89894138      -1.30339777       0.00000000
Si      -0.65874805       2.40620374       2.86267858       0.00000000
Si      -1.96168157      -0.96343947       3.12180064       0.00000000
