10
Lattice="10.86 0.0 0.0 0.0 10.86 0.0 0.0 0.0 10.86" Properties=species:S:1:pos:R:3:initial_magmoms:R:1 pbc="T T T"
Si       1.24213422       1.41850062       0.99593802       0.00000000
Si      -1.47286578      -1.29649938       0.99593802       0.00000000
Si       1.24213422      -1.29649938      -1.71906198       0.00000000
Si       2.59963422       0.06100062       2.35343802       0.00000000
Si      -0.11536578      -2.65399938       2.35343802       0.00000000
Si      -0.02734548       2.61481650       2.49611670       0.00000000
Si       2.59963422      -2.65399938      -0.36156198       0.00000000
Si      -2.97135030       0.20048646       2.34509754       0.00000000
Si       2.59963422       2.77600062      -0.36156198       0.00000000
Si      -2.83036578      -2.65399938      -0.36156198       0.00000000
