10
Lattice="10.86 0.0 0.0 0.0 10.86 0.0 0.0 0.0 10.86" Properties=species:S:1:pos:R:3:initial_magmoms:R:1 pbc="T T T"
Si       1.48752678      -1.65322866      -1.00703694       0.00000000
Si       1.48752678       1.06177134       1.70796306       0.00000000
Si      -1.22747322      -1.65322866       1.70796306       0.00000000
Si      -0.08737956       2.52758898      -2.42864352       0.00000000
Si      -2.51947656       2.44592178       0.44846370       0.00000000
Si       2.84502678      -0.29572866      -2.36453694       0.00000000
Si       2.84502678       2.41927134       0.35046306       0.00000000
Si       0.13002678       2.41927134       3.06546306       0.00000000
Si      -2.18646552      -1.81613952      -2.81277258       0.00000000
Si      -2.58497322      -0.29572866       3.06546306       0.00000000
