10
Lattice="16.28999089631971 0.0 0.0 0.0 16.28999089631971 0.0 0.0 0.0 34.69518985606464" Properties=species:S:1:pos:R:3:initial_magmoms:R:1 pbc="T T T"
Si       2.18035134      -0.61659279      -0.26892257       0.00000000
Si      -0.46560078       0.86592753      -2.13677385       0.00000000
Si      -1.23581546      -1.87260066       0.74900018       0.00000000
Si       0.07950009       1.69764606       1.67987264       0.00000000
Si       1.15895205       2.61881854      -1.96041810       0.00000000
Si       3.03210657       1.50245928      -1.02774149       0.00000000
Si      -2.56582880       1.92704184      -1.70467972       0.00000000
Si      -3.45795065      -1.01872773       0.58926343       0.00000000
Si      -0.25094908       0.49901157       3.69691333       0.00000000
Si       2.23547670      -2.57235390      -1.63265246       0.00000000
