10
Lattice="16.28999089631971 0.0 0.0 0.0 16.28999089631971 0.0 0.0 0.0 34.69518985606464" Properties=species:S:1:pos:R:3:initial_magmoms:R:1 pbc="T T T"
Si      -1.35687555       1.34978940      -1.36331355       0.00000000
Si       1.35668007       1.36436895       1.36477075       0.00000000
Si       1.35954711      -1.36549459      -1.36407685       0.00000000
Si      -1.36554183      -1.38556061       1.35807458       0.00000000
Si       2.40593526      -0.28751850       2.67507002       0.00000000
Si      -2.63816550       0.02355534       2.77877400       0.00000000
Si      -2.71363707       2.70791928       0.00239397       0.00000000
Si       0.00289962       2.70865233      -2.71972276       0.00000000
Si       2.72443734       2.70464499      -0.00836155       0.00000000
Si      -2.71265967      -2.71670804      -0.00534306       0.00000000
