10
Lattice="16.28999089631971 0.0 0.0 0.0 16.28999089631971 0.0 0.0 0.0 34.69518985606464" Properties=species:S:1:pos:R:3:initial_magmoms:R:1 pbc="T T T"
Si       2.01057696       0.86512932       0.88382576       0.00000000
Si       0.60013989      -2.13244245      -0.84871421       0.00000000
Si      -1.06916320       1.38886911      -1.63674650       0.00000000
Si      -1.41439065      -1.08119988       1.68466058       0.00000000
Si       1.53355689      -2.77860159       1.26956710       0.00000000
Si      -2.67601436       2.26069362      -0.08274807       0.00000000
Si       2.85824340      -1.01770146       2.01599983       0.00000000
Si      -1.52597227      -3.20808939      -1.01427975       0.00000000
Si       1.28702403       2.77190640       2.21442173       0.00000000
Si      -3.03574643      -2.38359352       0.65726604       0.00000000
