10
Lattice="16.28999089631971 0.0 0.0 0.0 16.28999089631971 0.0 0.0 0.0 34.69518985606464" Properties=species:S:1:pos:R:3:initial_magmoms:R:1 pbc="T T T"
Si      -1.35547461       1.35744570       1.35706841       0.00000000
Si       1.35637056       1.35599589      -1.35810927       0.00000000
Si       1.35773892      -1.35752715       1.35751945       0.00000000
Si      -1.35876519      -1.35848826      -1.35692963       0.00000000
Si       2.71337643      -0.00174303       2.71448378       0.00000000
Si      -2.71388794       2.71461447      -0.00031226       0.00000000
Si      -2.71295289      -0.00087966       2.71594098       0.00000000
Si      -2.71109909       0.00060273      -2.71805739       0.00000000
Si       0.00043983       2.71715571       2.71243676       0.00000000
Si      -2.71448741      -2.71511783      -0.00027756       0.00000000
