10
Lattice="16.28999089631971 0.0 0.0 0.0 16.28999089631971 0.0 0.0 0.0 34.69518985606464" Properties=species:S:1:pos:R:3:initial_magmoms:R:1 pbc="T T T"
Si       0.84766644      -1.88283078       1.13217407       0.00000000
Si      -2.01057696      -0.86512932      -0.88382576       0.00000000
Si      -0.72355293       1.90677708       1.33059597       0.00000000
Si       1.77789060       0.11077200      -1.67106006       0.00000000
Si      -0.47702007      -3.64373091       0.38574134       0.00000000
Si       2.89662264      -2.32834599       0.02567445       0.00000000
Si      -1.41043707      -2.99757177      -1.73253997       0.00000000
Si       1.71274689       2.25144090      -2.57098440       0.00000000
Si       3.83264604      -0.19064187      -0.42855522       0.00000000
Si       0.58472955      -1.59492132       3.47375374       0.00000000
