10
Lattice="16.28999089631971 0.0 0.0 0.0 16.28999089631971 0.0 0.0 0.0 34.69518985606464" Properties=species:S:1:pos:R:3:initial_magmoms:R:1 pbc="T T T"
Si       0.06514371      -2.14066890       0.89992434       0.00000000
Si      -0.38480238       1.54724049       1.72910514       0.00000000
Si       2.36511252       0.64702251      -0.10408563       0.00000000
Si      -1.73535741       0.60154083      -1.65860448       0.00000000
Si       0.27658791       3.57938541       0.64769017       0.00000000
Si      -1.71274689      -2.25144090       2.57098440       0.00000000
Si       2.11989915      -2.44208277       2.14242917       0.00000000
Si      -2.61368163       1.51536096       2.48830571       0.00000000
Si       0.21054825      -3.82266027      -0.93076838       0.00000000
Si       0.96894549       1.00110195       3.71426093       0.00000000
