10
Lattice="16.28999089631971 0.0 0.0 0.0 16.28999089631971 0.0 0.0 0.0 34.69518985606464" Properties=species:S:1:pos:R:3:initial_magmoms:R:1 pbc="T T T"
Si      -1.41724207       0.94897395       1.56770303       0.00000000
Si      -1.62135577      -1.30239364      -1.02739454       0.00000000
Si       1.17973320      -1.71817635       1.11611019       0.00000000
Si       1.41439065       1.08119988      -1.68466058       0.00000000
Si      -1.16321581       3.06597348       0.63759386       0.00000000
Si       2.01453054      -1.05124257      -2.53337479       0.00000000
Si       2.94794754      -1.69740171      -0.41509348       0.00000000
Si      -0.11158161      -2.12688951      -2.69894033       0.00000000
Si      -0.18904382       0.53994834       3.51427774       0.00000000
Si       1.81810572      -0.71459669       3.16146216       0.00000000
