10
Lattice="16.28999089631971 0.0 0.0 0.0 16.28999089631971 0.0 0.0 0.0 34.69518985606464" Properties=species:S:1:pos:R:3:initial_magmoms:R:1 pbc="T T T"
Si       2.28345075      -0.58070592      -0.16549615       0.00000000
Si      -0.84952350       1.56271599       1.56423351       0.00000000
Si      -0.66139029      -2.03214492       1.08141498       0.00000000
Si      -0.26806824       0.90091845      -2.26008063       0.00000000
Si      -0.27658791      -3.57938541      -0.64769017       0.00000000
Si       2.08852461      -2.93236290      -0.75177579       0.00000000
Si       3.11557653       0.26099838       1.97009807       0.00000000
Si      -2.66822055       1.62201159      -2.07841651       0.00000000
Si      -0.05997978       1.01452491       3.75079499       0.00000000
Si      -3.24548928       1.38802203       1.83711133       0.00000000
