10
Lattice="16.28999089631971 0.0 0.0 0.0 16.28999089631971 0.0 0.0 0.0 34.69518985606464" Properties=species:S:1:pos:R:3:initial_magmoms:R:1 pbc="T T T"
Si       0.73247985       2.07580212       0.80274306       0.00000000
Si       1.75992273      -1.55232297      -0.02657653       0.00000000
Si      -1.90566936      -0.64876554       1.25284401       0.00000000
Si      -0.78954372       0.54819108      -2.18656148       0.00000000
Si       1.66298094       3.07638279      -1.10708943       0.00000000
Si      -1.25659431       3.13152444       1.47791183       0.00000000
Si      -3.40518015      -1.39575978      -0.36006688       0.00000000
Si       2.63997369      -1.38465000       2.18791459       0.00000000
Si       3.17555631      -0.75352653      -1.78069692       0.00000000
Si       0.75233736      -3.59280837      -0.68422422       0.00000000
