10
Lattice="16.28999089631971 0.0 0.0 0.0 16.28999089631971 0.0 0.0 0.0 34.69518985606464" Properties=species:S:1:pos:R:3:initial_magmoms:R:1 pbc="T T T"
Si       1.35658233      -1.35744570       1.35651329       0.00000000
Si       1.35606105       1.35798327      -1.35686024       0.00000000
Si      -1.35733167       1.35738054       1.35682555       0.00000000
Si      -1.35933534      -1.35873261      -1.35696433       0.00000000
Si       2.71019988      -0.00327429       2.71507360       0.00000000
Si      -2.71397916       0.00418653      -2.71385927       0.00000000
Si       0.00017919      -2.71754667       2.71115304       0.00000000
Si      -0.00058644       2.71469592       2.71465726       0.00000000
Si      -2.71484253      -2.71515204       0.00017348       0.00000000
Si      -2.71502172       2.71503801      -0.00020817       0.00000000
