10
Lattice="16.28999089631971 0.0 0.0 0.0 16.28999089631971 0.0 0.0 0.0 34.69518985606464" Properties=species:S:1:pos:R:3:initial_magmoms:R:1 pbc="T T T"
Si       1.35940050      -1.35405738       1.35810927       0.00000000
Si      -1.35674523      -1.35731538      -1.35783171       0.00000000
Si       1.35767376       1.35789393      -1.35738067       0.00000000
Si      -1.35726651       1.36234772       1.35790110       0.00000000
Si      -0.01014867       2.69349516       2.72131874       0.00000000
Si       2.71494027       2.71356118      -0.00083269       0.00000000
Si       2.71078632      -2.71797021       0.00041634       0.00000000
Si      -2.71443528       0.00034209      -2.71486543       0.00000000
Si       0.00058644      -2.71469592      -2.71465726       0.00000000
Si       0.00109143       2.71477641      -2.71472665       0.00000000
