10
Lattice="16.28999089631971 0.0 0.0 0.0 16.28999089631971 0.0 0.0 0.0 34.69518985606464" Properties=species:S:1:pos:R:3:initial_magmoms:R:1 pbc="T T T"
Si       1.61370369       0.33622560       1.61950298       0.00000000
Si      -0.73247985      -2.07580212      -0.80274306       0.00000000
Si       0.93050109       1.00058067      -1.90983249       0.00000000
Si      -1.98907416       1.05572232       0.67516877       0.00000000
Si      -2.54648538       1.56569706      -1.69819171       0.00000000
Si      -0.96443316       0.74668473      -3.24528579       0.00000000
Si      -1.52202357      -1.52761104      -2.98930453       0.00000000
Si      -1.15714386       2.38742982       2.56578011       0.00000000
Si       2.86472682       2.25934155       1.09723599       0.00000000
Si       0.63366471       1.17465561       3.57121258       0.00000000
