10
Lattice="16.28999089631971 0.0 0.0 0.0 16.28999089631971 0.0 0.0 0.0 34.69518985606464" Properties=species:S:1:pos:R:3:initial_magmoms:R:1 pbc="T T T"
Si       1.98907416      -1.05572232      -0.67516877       0.00000000
Si      -1.49229432      -1.76269203       0.79979396       0.00000000
Si       0.83193030       1.33170750       1.89061134       0.00000000
Si      -0.55741122       0.50997474      -2.37336048       0.00000000
Si       1.25659431      -3.13152444      -1.47791183       0.00000000
Si       3.60277785      -0.71949672       0.94433421       0.00000000
Si      -0.64907505      -3.78028998      -0.22506782       0.00000000
Si       2.91957525      -0.05514165      -2.58500126       0.00000000
Si       2.62273887       0.11893329       2.89604381       0.00000000
Si      -3.80152074      -0.83500911       0.59873523       0.00000000
