10
Lattice="16.28999089631971 0.0 0.0 0.0 16.28999089631971 0.0 0.0 0.0 34.69518985606464" Properties=species:S:1:pos:R:3:initial_magmoms:R:1 pbc="T T T"
Si       1.87315452      -1.11635926       0.93267661       0.00000000
Si       0.34094970       1.19151413      -2.04139672       0.00000000
Si      -1.62455283      -1.75289101      -0.17635575       0.00000000
Si      -0.39394107       1.77711031       1.57717482       0.00000000
Si      -1.66619984       2.44605916      -1.68858114       0.00000000
Si      -1.15895205      -2.61881854       1.96041810       0.00000000
Si       3.45250260      -1.12896772      -0.80766978       0.00000000
Si      -3.38153426       1.65216601      -0.12264756       0.00000000
Si       0.40306347       0.92530947       3.63550281       0.00000000
Si       2.52283230       0.22990077       2.80670365       0.00000000
