10
Lattice="16.28999089631971 0.0 0.0 0.0 16.28999089631971 0.0 0.0 0.0 34.69518985606464" Properties=species:S:1:pos:R:3:initial_magmoms:R:1 pbc="T T T"
Si       1.35187452       1.35015430      -1.36020486       0.00000000
Si      -1.35858600       1.35246748       1.35769293       0.00000000
Si       1.35650088      -1.36041616       1.35790110       0.00000000
Si      -1.36893015      -1.36378318      -1.35587490       0.00000000
Si       2.52451017      -0.13464337      -2.77253581       0.00000000
Si      -2.70987408       2.71038559      -0.00496141       0.00000000
Si       0.00074934       2.71181911       2.71354701       0.00000000
Si       2.71309950      -2.71293727      -0.00503081       0.00000000
Si       2.71451673       2.71155847      -0.00222049       0.00000000
Si      -2.71290402      -2.71477804       0.00052043       0.00000000
