10
Lattice="16.28999089631971 0.0 0.0 0.0 16.28999089631971 0.0 0.0 0.0 34.69518985606464" Properties=species:S:1:pos:R:3:initial_magmoms:R:1 pbc="T T T"
Si      -1.35187452      -1.35015430       1.36020486       0.00000000
Si      -1.34684091       1.28467827      -1.44503118       0.00000000
Si       1.36264221       1.36140417       1.35798437       0.00000000
Si       1.17263565      -1.48479766      -1.41233094       0.00000000
Si       1.85606631       0.30281481      -2.89316554       0.00000000
Si       0.40905819       2.29387635      -2.70613858       0.00000000
Si      -2.19686940      -0.58779207      -2.76895669       0.00000000
Si      -0.52730730      -2.57149867      -2.67006801       0.00000000
Si      -2.71046052       0.00231318       2.71789779       0.00000000
Si       0.00462636      -2.71057046       2.71810596       0.00000000
