10
Lattice="16.28999089631971 0.0 0.0 0.0 16.28999089631971 0.0 0.0 0.0 34.69518985606464" Properties=species:S:1:pos:R:3:initial_magmoms:R:1 pbc="T T T"
Si      -0.39674295       1.64812446       1.62429092       0.00000000
Si      -1.70294031      -1.61995905       0.26170596       0.00000000
Si      -0.06048477       1.57317417      -1.77382727       0.00000000
Si       2.04496515      -1.01955852       0.70774757       0.00000000
Si      -0.90593577      -2.47175989       2.32003395       0.00000000
Si       1.19117367       3.18842541       0.87133548       0.00000000
Si      -2.21098794       1.23603633      -2.61192474       0.00000000
Si       1.21383306      -3.16716859       1.49123479       0.00000000
Si       2.55730194       0.25475931       2.69658105       0.00000000
Si      -3.43188712       1.55773125      -0.59606369       0.00000000
