10
Lattice="16.28999089631971 0.0 0.0 0.0 16.28999089631971 0.0 0.0 0.0 34.69518985606464" Properties=species:S:1:pos:R:3:initial_magmoms:R:1 pbc="T T T"
Si       1.04925519      -1.65188745       1.31029927       0.00000000
Si       1.36775727       1.34027604      -1.37313230       0.00000000
Si      -1.35668007      -1.36436895      -1.36477075       0.00000000
Si      -0.82787409       1.88227692       1.26248927       0.00000000
Si       1.68531453      -0.32770593       3.07659768       0.00000000
Si       2.69907381       2.69752626       0.01276784       0.00000000
Si      -2.70001863       2.71207323       0.00617575       0.00000000
Si       2.69676063      -2.72611032      -0.01970688       0.00000000
Si       0.00259011       2.69951364      -2.72780674       0.00000000
Si      -2.71355562      -0.01457955      -2.72808430       0.00000000
