10
Lattice="16.28999089631971 0.0 0.0 0.0 16.28999089631971 0.0 0.0 0.0 34.69518985606464" Properties=species:S:1:pos:R:3:initial_magmoms:R:1 pbc="T T T"
Si       0.63605934       1.32418152       1.76629841       0.00000000
Si      -1.04925519       1.65188745      -1.31029927       0.00000000
Si       1.64750544      -1.07422287      -1.33000615       0.00000000
Si      -1.69929135      -1.07218825       1.34829053       0.00000000
Si      -2.40593526       0.28751850      -2.67507002       0.00000000
Si       0.31110642      -2.42892092      -2.67912936       0.00000000
Si       2.49632847       0.33197391       2.67343935       0.00000000
Si       2.72640843      -2.53267865       0.09149127       0.00000000
Si      -2.78501985      -2.77719155       0.05093257       0.00000000
Si       2.80355787       2.77622325       0.05575520       0.00000000
