10
Lattice="16.28999089631971 0.0 0.0 0.0 16.28999089631971 0.0 0.0 0.0 34.69518985606464" Properties=species:S:1:pos:R:3:initial_magmoms:R:1 pbc="T T T"
Si       0.89593371      -1.13479302       1.80446314       0.00000000
Si       0.26270883      -1.03423485      -2.06467721       0.00000000
Si      -2.16977913      -0.11227508       0.86359845       0.00000000
Si       0.96594813       2.08832099      -0.44271087       0.00000000
Si      -0.93121785       0.57093355      -3.26239053       0.00000000
Si       1.21713993      -3.26436843       0.89905696       0.00000000
Si      -2.62326015      -2.45053632       0.53763696       0.00000000
Si      -3.31897347       1.58937457      -0.15709991       0.00000000
Si       2.56078800      -1.12617561      -2.41339876       0.00000000
Si      -1.97765487       0.70830223       3.03943911       0.00000000
