10
Lattice="16.28999089631971 0.0 0.0 0.0 16.28999089631971 0.0 0.0 0.0 34.69518985606464" Properties=species:S:1:pos:R:3:initial_magmoms:R:1 pbc="T T T"
Si      -1.83122406       0.23962590       1.56038234       0.00000000
Si       0.52277868       2.37045564       0.11511870       0.00000000
Si      -0.38986857       0.44299026      -2.47276226       0.00000000
Si       1.62999369      -1.46556243      -1.32671011       0.00000000
Si       1.51767414      -1.39913181       1.72900106       0.00000000
Si      -0.37949184      -2.91651925      -1.09067860       0.00000000
Si      -1.58601069       3.32873118      -0.68613246       0.00000000
Si      -0.10739997       2.82414843      -2.46596200       0.00000000
Si      -2.64588696      -2.79973461      -0.19550750       0.00000000
Si      -2.76724746      -1.89807822       2.01461202       0.00000000
