10
Lattice="16.28999089631971 0.0 0.0 0.0 16.28999089631971 0.0 0.0 0.0 34.69518985606464" Properties=species:S:1:pos:R:3:initial_magmoms:R:1 pbc="T T T"
Si       1.35637056       1.35523026       1.35668677       0.00000000
Si      -1.35765747       1.35785295      -1.35842153       0.00000000
Si       1.35798327      -1.35788553      -1.35866439       0.00000000
Si      -1.35977517      -1.35886293       1.35640921       0.00000000
Si       2.71269225      -0.00115659      -2.71517769       0.00000000
Si      -0.00289962      -2.70865233       2.71972276       0.00000000
Si      -0.00164529       2.71282257      -2.71590628       0.00000000
Si      -0.00739566       2.71942002       2.70983462       0.00000000
Si      -2.71471221       2.71498914      -0.00249806       0.00000000
Si       2.71534752       2.71454931      -0.00072860       0.00000000
