10
Lattice="16.28999089631971 0.0 0.0 0.0 16.28999089631971 0.0 0.0 0.0 34.69518985606464" Properties=species:S:1:pos:R:3:initial_magmoms:R:1 pbc="T T T"
Si      -1.35470898      -1.35672894       1.35651329       0.00000000
Si      -1.35307998       1.35904212      -1.35987873       0.00000000
Si       1.35918873       1.35881406       1.35630512       0.00000000
Si       1.35905841      -1.35698958      -1.35925421       0.00000000
Si       0.00307881      -2.71303434       2.71344292       0.00000000
Si      -2.71269225       0.00115659       2.71517769       0.00000000
Si      -2.71433754       2.71397916      -0.00072860       0.00000000
Si      -2.71404432      -2.71608057       0.00065921       0.00000000
Si       0.00265527       2.71570590       2.71444909       0.00000000
Si       2.71699281      -0.00014661       2.71396335       0.00000000
