10
Lattice="16.28999089631971 0.0 0.0 0.0 16.28999089631971 0.0 0.0 0.0 34.69518985606464" Properties=species:S:1:pos:R:3:initial_magmoms:R:1 pbc="T T T"
Si      -1.35637056      -1.35523026      -1.35668677       0.00000000
Si       1.35897696       1.35931905      -1.35741537       0.00000000
Si       1.36516716      -1.35923760       1.35467444       0.00000000
Si      -1.36376622       1.36418976       1.35314786       0.00000000
Si      -0.00439830       2.69581581       2.71774513       0.00000000
Si       2.71357191      -2.71231758      -0.00235927       0.00000000
Si      -0.00259011      -2.69951364       2.72780674       0.00000000
Si       0.00161271      -2.71311579      -2.71535116       0.00000000
Si      -2.71389771       2.71480995      -0.00371239       0.00000000
Si      -2.71402803       0.00262269      -2.71510829       0.00000000
