10
Lattice="16.28999089631971 0.0 0.0 0.0 16.28999089631971 0.0 0.0 0.0 34.69518985606464" Properties=species:S:1:pos:R:3:initial_magmoms:R:1 pbc="T T T"
Si       1.47861072      -0.50458275      -1.77982954       0.00000000
Si       0.19492614       2.35165698       0.58627965       0.00000000
Si       2.10878937      -0.95827554       0.80125116       0.00000000
Si      -2.36511252      -0.64702251       0.10408563       0.00000000
Si      -2.74991490       0.90021798       1.83319077       0.00000000
Si       1.19614212      -2.88574092      -1.78662980       0.00000000
Si      -2.08852461       2.93236290       0.75177579       0.00000000
Si       1.58601069      -3.32873118       0.68613246       0.00000000
Si      -2.29996881      -2.78769141       1.00400997       0.00000000
Si       1.59264072       3.10712202      -1.52173188       0.00000000
