10
Lattice="16.28999089631971 0.0 0.0 0.0 16.28999089631971 0.0 0.0 0.0 34.69518985606464" Properties=species:S:1:pos:R:3:initial_magmoms:R:1 pbc="T T T"
Si      -0.93175542       0.75455280      -1.98637012       0.00000000
Si       1.20537855       1.87553286       0.79136303       0.00000000
Si      -2.10781197      -0.18046062       1.09730538       0.00000000
Si       1.52857215      -1.77205878      -0.51647288       0.00000000
Si       2.05675911      -2.20442796       1.72150689       0.00000000
Si       1.03074975       1.69883523      -2.90506457       0.00000000
Si       1.74506625      -0.44805645       3.11344399       0.00000000
Si      -0.60903423       3.21672114       1.50237195       0.00000000
Si      -1.50588018      -1.32181947      -3.01341770       0.00000000
Si       2.05917003       2.90317122      -1.13210468       0.00000000
