10
Lattice="16.28999089631971 0.0 0.0 0.0 16.28999089631971 0.0 0.0 0.0 34.69518985606464" Properties=species:S:1:pos:R:3:initial_magmoms:R:1 pbc="T T T"
Si       1.23569424      -1.70610057      -0.96782286       0.00000000
Si      -1.19534391       1.66128678      -1.16954081       0.00000000
Si      -1.96250517      -0.94428243       0.91869445       0.00000000
Si       1.02842028       1.20433599       1.77295989       0.00000000
Si      -2.96056089       1.16815590       0.41141579       0.00000000
Si       2.99307573      -0.19512162      -1.70180001       0.00000000
Si      -1.03074975      -1.69883523       2.90506457       0.00000000
Si      -0.74505573      -2.98991547      -1.76015736       0.00000000
Si       0.17462880       0.17669763       3.69642759       0.00000000
Si      -0.02855637       3.67541496      -0.76700699       0.00000000
