10
Lattice="16.28999089631971 0.0 0.0 0.0 16.28999089631971 0.0 0.0 0.0 34.69518985606464" Properties=species:S:1:pos:R:3:initial_magmoms:R:1 pbc="T T T"
Si       1.33195511       1.36523232      -1.34710395       0.00000000
Si       1.35233390      -1.35909099       1.36112775       0.00000000
Si      -1.36095092       1.35612621       1.36064202       0.00000000
Si      -1.38341589      -1.37534841      -1.38707630       0.00000000
Si      -0.17890655       2.49307047      -2.80644690       0.00000000
Si       2.56861046       0.05058045      -2.79559771       0.00000000
Si       2.71153892      -2.71353770      -0.00228988       0.00000000
Si       2.71142489       2.71440270       0.00336544       0.00000000
Si      -2.71688271      -2.71157964       0.00232458       0.00000000
Si       2.71109909      -0.00060273       2.71805739       0.00000000
