10
Lattice="16.28999089631971 0.0 0.0 0.0 16.28999089631971 0.0 0.0 0.0 34.69518985606464" Properties=species:S:1:pos:R:3:initial_magmoms:R:1 pbc="T T T"
Si      -1.28345652      -1.01574666      -1.69430585       0.00000000
Si      -1.95895395       0.93849948       0.95640814       0.00000000
Si       0.56951469      -1.53754794       1.87364538       0.00000000
Si       1.40030469       1.69688043      -1.46948089       0.00000000
Si      -1.00387125       2.46902643       2.35594349       0.00000000
Si       1.50026013      -3.33589878       0.52306497       0.00000000
Si       2.22716880      -0.16421949       3.00335609       0.00000000
Si      -3.30434505      -1.76207301      -0.42453058       0.00000000
Si       0.18122625      -2.21949621      -3.10171701       0.00000000
Si      -3.37971888      -0.81138861       1.88707243       0.00000000
