10
Lattice="16.28999089631971 0.0 0.0 0.0 16.28999089631971 0.0 0.0 0.0 34.69518985606464" Properties=species:S:1:pos:R:3:initial_magmoms:R:1 pbc="T T T"
Si       1.63549971       0.88137045      -1.52919135       0.00000000
Si       1.27910709      -1.33224507       1.57141542       0.00000000
Si      -1.65765411      -1.37332845      -1.12971071       0.00000000
Si      -1.56369339       1.72579518       0.78966296       0.00000000
Si      -2.22716880       0.16421949      -3.00335609       0.00000000
Si      -1.94847948       1.11806415       3.03666349       0.00000000
Si      -3.05536869      -2.12879349       0.97830082       0.00000000
Si       2.99029014       0.20043216       2.43834461       0.00000000
Si       3.72677733      -0.05615163      -1.16090170       0.00000000
Si       1.83339063       3.20424300      -1.41726460       0.00000000
