10
Lattice="16.28999089631971 0.0 0.0 0.0 16.28999089631971 0.0 0.0 0.0 34.69518985606464" Properties=species:S:1:pos:R:3:initial_magmoms:R:1 pbc="T T T"
Si       0.74011986      -2.07433602      -0.80194507       0.00000000
Si       1.74084714       0.76343085       1.42153211       0.00000000
Si      -1.92850794      -0.25308144       1.36470136       0.00000000
Si      -0.23188815       1.37999106      -1.97141648       0.00000000
Si       2.86174575      -1.14774453      -1.50736806       0.00000000
Si      -0.55309437       3.50956647      -1.06601030       0.00000000
Si       1.15983171       0.00835677       3.57083094       0.00000000
Si      -1.17512802      -0.37432791       3.59952387       0.00000000
Si       1.42848639       3.11665167       1.70995339       0.00000000
Si       3.78033885      -0.29620107       0.60917848       0.00000000
