10
Lattice="16.28999089631971 0.0 0.0 0.0 16.28999089631971 0.0 0.0 0.0 34.69518985606464" Properties=species:S:1:pos:R:3:initial_magmoms:R:1 pbc="T T T"
Si       1.19534391      -1.66128678       1.16954081       0.00000000
Si       1.16678754       2.01412818       0.40253382       0.00000000
Si      -0.88005096      -0.16767297      -2.21449112       0.00000000
Si      -1.76521698      -0.49313088       1.58095660       0.00000000
Si      -0.76716126      -2.60556921       2.08823525       0.00000000
Si      -2.63997369       1.38465000      -2.18791459       0.00000000
Si       2.22376419      -0.45695079       2.94250070       0.00000000
Si       1.92016746       1.89288171       2.63735633       0.00000000
Si      -0.29379015       3.79667772       0.23433144       0.00000000
Si       3.09529548       2.26720962      -0.96216754       0.00000000
