10
Lattice="16.28999089631971 0.0 0.0 0.0 16.28999089631971 0.0 0.0 0.0 34.69518985606464" Properties=species:S:1:pos:R:3:initial_magmoms:R:1 pbc="T T T"
Si      -1.46057769       1.78254954      -0.16820237       0.00000000
Si       0.75337992      -0.12124647       2.23482251       0.00000000
Si      -1.16678754      -2.01412818      -0.40253382       0.00000000
Si       1.92850794       0.25308144      -1.36470136       0.00000000
Si       1.05697665      -2.47107897       2.53996688       0.00000000
Si       0.02855637      -3.67541496       0.76700699       0.00000000
Si      -0.20955456       3.70566549      -0.69046936       0.00000000
Si       3.08833965       0.26143821       2.20612958       0.00000000
Si       3.66935508       1.01651229       0.05683075       0.00000000
Si      -3.07428138       1.44632394      -1.78770535       0.00000000
