10
Lattice="16.28999089631971 0.0 0.0 0.0 16.28999089631971 0.0 0.0 0.0 34.69518985606464" Properties=species:S:1:pos:R:3:initial_magmoms:R:1 pbc="T T T"
Si      -1.00048293       1.46007270       1.56013947       0.00000000
Si      -0.75337992       0.12124647      -2.23482251       0.00000000
Si       2.33495973       0.38268468      -0.02869294       0.00000000
Si       0.30359673      -2.34983250       0.30514437       0.00000000
Si       2.63958273      -1.95229134       0.18211515       0.00000000
Si      -1.92016746      -1.89288171      -2.63735633       0.00000000
Si      -2.21395761       1.90379601      -2.40302489       0.00000000
Si      -3.33876582       1.17437868       1.36501362       0.00000000
Si       1.17512802       0.37432791      -3.59952387       0.00000000
Si      -1.17263565       3.58450047       0.53482665       0.00000000
