10
Lattice="16.28999089631971 0.0 0.0 0.0 16.28999089631971 0.0 0.0 0.0 34.69518985606464" Properties=species:S:1:pos:R:3:initial_magmoms:R:1 pbc="T T T"
Si      -1.35529648       1.35684297      -1.35800519       0.00000000
Si      -1.35736531      -1.35729909       1.35692963       0.00000000
Si       1.35816207       1.35788553       1.35710311       0.00000000
Si       1.36095092      -1.35612621      -1.36064202       0.00000000
Si       2.69290603       0.00910611      -2.70774597       0.00000000
Si       2.71328482      -2.71521720       0.00048573       0.00000000
Si      -0.00042402      -2.71415835       2.71469195       0.00000000
Si      -2.71485988       2.71412577      -0.00013878       0.00000000
Si      -2.71510423      -0.00091224       2.71427561       0.00000000
Si       2.71473463       2.71511946      -0.00003470       0.00000000
