10
Lattice="16.28999089631971 0.0 0.0 0.0 16.28999089631971 0.0 0.0 0.0 34.69518985606464" Properties=species:S:1:pos:R:3:initial_magmoms:R:1 pbc="T T T"
Si      -1.12260906       1.53771084       1.35847010       0.00000000
Si       1.07088831       1.68014964      -1.31592788       0.00000000
Si       1.59228234      -1.17566559       1.34449140       0.00000000
Si      -1.78852797      -0.97370217      -1.32157036       0.00000000
Si      -2.46658293       0.18671598       2.71486543       0.00000000
Si      -2.46905901       2.72929406      -0.18135880       0.00000000
Si       0.24997005      -2.53135197       2.70959176       0.00000000
Si       2.17569240       0.26204094      -3.14399108       0.00000000
Si       2.97598752      -2.46887982      -0.07318954       0.00000000
Si      -2.73745305      -2.74763430      -0.05279570       0.00000000
