10
Lattice="16.28999089631971 0.0 0.0 0.0 16.28999089631971 0.0 0.0 0.0 34.69518985606464" Properties=species:S:1:pos:R:3:initial_magmoms:R:1 pbc="T T T"
Si       1.34739477       1.35576783       1.38031767       0.00000000
Si      -1.38657222       1.31108436      -1.39468843       0.00000000
Si      -1.37034738      -1.35883035       1.37938090       0.00000000
Si       1.10920239      -1.52278920      -1.51218723       0.00000000
Si      -2.32393140      -0.42635817      -2.68474204       0.00000000
Si       2.68684274       2.70972747      -0.00957588       0.00000000
Si       2.68022628      -2.73254976      -0.00939546       0.00000000
Si       2.70269125      -0.00107514       2.73832286       0.00000000
Si      -2.74603788       2.70368388       0.00202967       0.00000000
Si      -0.01216863       2.71305063       2.73818408       0.00000000
