10
Lattice="16.28999089631971 0.0 0.0 0.0 16.28999089631971 0.0 0.0 0.0 34.69518985606464" Properties=species:S:1:pos:R:3:initial_magmoms:R:1 pbc="T T T"
Si      -1.35773892       1.35638685       1.35734598       0.00000000
Si       1.35694129      -1.35685926       1.35776232       0.00000000
Si       1.35736531       1.35729909      -1.35692963       0.00000000
Si      -1.35809730      -1.35873261      -1.35748476       0.00000000
Si       0.00143352      -2.71040676      -2.71524708       0.00000000
Si       0.00206883       2.71414206      -2.71493482       0.00000000
Si      -0.00182448       2.71357191       2.71573281       0.00000000
Si      -2.71554300      -2.71389282       0.00038165       0.00000000
Si       2.71492791      -2.71454768       0.00020817       0.00000000
Si      -2.71748151       0.00060273       2.71288780       0.00000000
