10
Lattice="16.28999089631971 0.0 0.0 0.0 16.28999089631971 0.0 0.0 0.0 34.69518985606464" Properties=species:S:1:pos:R:3:initial_magmoms:R:1 pbc="T T T"
Si      -1.35974259      -1.35578412       1.35554183       0.00000000
Si       1.35773892      -1.35638685      -1.35734598       0.00000000
Si       1.35591444       1.35718506       1.35838683       0.00000000
Si      -1.35780408       1.35896067      -1.35765823       0.00000000
Si      -2.70814734      -0.00270414       2.71257554       0.00000000
Si       0.00078192      -2.70941796       2.71632263       0.00000000
Si      -2.71391400      -2.71288773      -0.00052043       0.00000000
Si       2.71468021      -2.71324611       0.00041634       0.00000000
Si       2.71510423       0.00091224      -2.71427561       0.00000000
Si       0.00024435       2.71503801      -2.71441439       0.00000000
