10
Lattice="16.28999089631971 0.0 0.0 0.0 16.28999089631971 0.0 0.0 0.0 34.69518985606464" Properties=species:S:1:pos:R:3:initial_magmoms:R:1 pbc="T T T"
Si      -1.33131654      -1.35725022      -1.38590013       0.00000000
Si       1.15373925      -1.57319046       1.35328664       0.00000000
Si       1.38201102       1.36089918      -1.38024481       0.00000000
Si      -1.85458392       0.94837122       1.34561900       0.00000000
Si       0.95022828       1.85389974       3.07462005       0.00000000
Si      -2.69907381      -2.69752626      -0.01276784       0.00000000
Si      -2.70088200       2.69780319      -0.02282945       0.00000000
Si      -3.52694790      -0.81524934       1.24972144       0.00000000
Si       2.12758803      -0.38923326       3.17311975       0.00000000
Si      -2.69648370       0.00198738      -2.74057458       0.00000000
