10
Lattice="16.28999089631971 0.0 0.0 0.0 16.28999089631971 0.0 0.0 0.0 34.69518985606464" Properties=species:S:1:pos:R:3:initial_magmoms:R:1 pbc="T T T"
Si      -0.41821317       0.68465241       2.19367399       0.00000000
Si      -0.06291198      -2.35002798       0.25712620       0.00000000
Si       2.22688277       0.42257889      -0.67704231       0.00000000
Si      -1.91347227       0.49249557      -1.36071141       0.00000000
Si       2.28894767      -1.12404258      -2.46672529       0.00000000
Si      -1.72532277      -1.12365162       2.98219202       0.00000000
Si      -0.97712307       1.32352992      -3.27946057       0.00000000
Si       0.03549591      -2.62594800       2.66212871       0.00000000
Si       1.54393918      -3.22185249      -1.29687223       0.00000000
Si       2.47589171       2.77571826      -0.94329335       0.00000000
