10
Lattice="16.28999089631971 0.0 0.0 0.0 16.28999089631971 0.0 0.0 0.0 34.69518985606464" Properties=species:S:1:pos:R:3:initial_magmoms:R:1 pbc="T T T"
Si       1.35602847       1.35399222       1.35460505       0.00000000
Si       1.35672894      -1.35770634      -1.35797049       0.00000000
Si      -1.35835794       1.35713619      -1.35776232       0.00000000
Si      -1.36073628      -1.35913986       1.35915013       0.00000000
Si       2.70611841       0.00851967       2.71444909       0.00000000
Si       2.71148805      -0.00136836      -2.71420622       0.00000000
Si      -0.00120546       2.71186146      -2.71538586       0.00000000
Si       2.71327730       2.71443528      -0.00079799       0.00000000
Si       2.71357692      -2.71529865      -0.00006939       0.00000000
Si      -2.71560816       2.71417464       0.00024287       0.00000000
