10
Lattice="16.28999089631971 0.0 0.0 0.0 16.28999089631971 0.0 0.0 0.0 34.69518985606464" Properties=species:S:1:pos:R:3:initial_magmoms:R:1 pbc="T T T"
Si      -1.51290917       1.56514320       1.00355893       0.00000000
Si       0.36769381       0.91473237      -2.27676902       0.00000000
Si      -2.09141594      -1.26737829      -0.46949557       0.00000000
Si       1.75316157      -0.88242930       1.81629420       0.00000000
Si      -3.26877569       0.97575471      -0.56799527       0.00000000
Si      -2.44925837       0.73410885       2.92230808       0.00000000
Si      -2.27959802      -2.96331390       1.24083946       0.00000000
Si       1.23815810      -0.86763798      -3.63817434       0.00000000
Si       2.48197617      -2.29467456      -2.06519764       0.00000000
Si       1.69109667       0.66419217       3.60597718       0.00000000
