10
Lattice="16.28999089631971 0.0 0.0 0.0 16.28999089631971 0.0 0.0 0.0 34.69518985606464" Properties=species:S:1:pos:R:3:initial_magmoms:R:1 pbc="T T T"
Si      -1.34157924      -1.33727868      -1.39762711       0.00000000
Si       1.37292120       1.37308410      -1.39741894       0.00000000
Si      -1.49051871       1.19772225       1.59025492       0.00000000
Si       1.21630914      -1.76678082       1.44404930       0.00000000
Si       2.60783352      -0.29221002       2.59020554       0.00000000
Si      -2.71399545       2.70865233      -0.01103308       0.00000000
Si      -2.70959715      -2.71865439      -0.04198120       0.00000000
Si       2.71127502       2.73272895      -0.01557815       0.00000000
Si       2.74452291      -2.70381420      -0.03410539       0.00000000
Si       0.00856854      -2.69796609      -2.75795688       0.00000000
