10
Lattice="16.28999089631971 0.0 0.0 0.0 16.28999089631971 0.0 0.0 0.0 34.69518985606464" Properties=species:S:1:pos:R:3:initial_magmoms:R:1 pbc="T T T"
Si      -2.33207640      -0.27249912       0.52733249       0.00000000
Si       0.27479601       1.79577702      -1.61141899       0.00000000
Si       1.75586652       0.58938849       1.57155420       0.00000000
Si       1.17735975      -2.24313300       0.09849970       0.00000000
Si      -2.80481220      -0.90552852      -1.72900106       0.00000000
Si       3.26877569      -0.97575471       0.56799527       0.00000000
Si       0.81951732      -0.24164586       3.49030335       0.00000000
Si       1.80300978       0.85874364      -3.08957369       0.00000000
Si       1.66632039       3.27034782      -0.46526276       0.00000000
Si      -0.95022828      -1.85389974      -3.07462005       0.00000000
