10
Lattice="16.28999089631971 0.0 0.0 0.0 16.28999089631971 0.0 0.0 0.0 34.69518985606464" Properties=species:S:1:pos:R:3:initial_magmoms:R:1 pbc="T T T"
Si      -1.07404857       1.35480672       1.55937618       0.00000000
Si      -1.44537912      -0.44219205      -1.79235451       0.00000000
Si      -0.12966840      -2.03449068       1.26006061       0.00000000
Si       1.99001721       1.20174588      -0.71204978       0.00000000
Si       0.21611943       0.65130678       3.37570508       0.00000000
Si      -0.26213868      -1.42454421      -3.51701867       0.00000000
Si       2.01616396      -2.94412428       1.44758822       0.00000000
Si      -1.79838342       1.60708995      -3.02420791       0.00000000
Si      -3.20276061      -1.95317100      -1.05837736       0.00000000
Si      -2.11729275      -3.22851510       0.66247033       0.00000000
