10
Lattice="16.28999089631971 0.0 0.0 0.0 16.28999089631971 0.0 0.0 0.0 34.69518985606464" Properties=species:S:1:pos:R:3:initial_magmoms:R:1 pbc="T T T"
Si       1.35455692       1.35648183      -1.35762354       0.00000000
Si       1.35651578      -1.35731538       1.35696433       0.00000000
Si      -1.35769005       1.35717700       1.35758884       0.00000000
Si      -1.35796698      -1.35988920      -1.35762354       0.00000000
Si       2.71033902      -0.00278559       2.71403274       0.00000000
Si       0.00089595      -2.71423980      -2.71261024       0.00000000
Si      -0.00216657       2.71234920       2.71490012       0.00000000
Si      -2.71511946      -2.71461447       0.00000000       0.00000000
Si       2.71465424      -2.71513575       0.00010409       0.00000000
Si       2.71471614       2.71512828       0.00010409       0.00000000
