10
Lattice="16.28999089631971 0.0 0.0 0.0 16.28999089631971 0.0 0.0 0.0 34.69518985606464" Properties=species:S:1:pos:R:3:initial_magmoms:R:1 pbc="T T T"
Si       1.35241209      -1.35791811      -1.36508301       0.00000000
Si       1.33835382       1.35964485       1.38184079       0.00000000
Si      -1.36454814       1.35806472      -1.36237678       0.00000000
Si      -1.37292120      -1.37308410       1.39741894       0.00000000
Si      -0.30504654       2.61835686       2.76728989       0.00000000
Si       2.70250203      -2.70339066      -0.00523898       0.00000000
Si      -2.71450044      -2.71036278      -0.00020817       0.00000000
Si       2.70966092       0.00252495      -2.72048605       0.00000000
Si       2.71284649       2.71799153      -0.00423282       0.00000000
Si      -0.00361638      -2.71191033      -2.71968806       0.00000000
