10
Lattice="16.28999089631971 0.0 0.0 0.0 16.28999089631971 0.0 0.0 0.0 34.69518985606464" Properties=species:S:1:pos:R:3:initial_magmoms:R:1 pbc="T T T"
Si       0.95356773      -2.16536454      -0.33009022       0.00000000
Si       1.35166275       1.41890787       1.42836707       0.00000000
Si      -1.93214061      -0.63680868       1.38048768       0.00000000
Si      -0.58849254       1.50138414      -1.93196803       0.00000000
Si      -2.25334683       1.49276673       2.28589386       0.00000000
Si      -2.88657171       1.59332490      -1.58324648       0.00000000
Si       1.87879086       3.29655747       0.07209664       0.00000000
Si      -0.16961148       2.28806082       3.03364501       0.00000000
Si       1.16149329      -3.16454427       1.84453610       0.00000000
Si       2.81579005      -1.86294069      -1.87184123       0.00000000
