10
Lattice="16.28999089631971 0.0 0.0 0.0 16.28999089631971 0.0 0.0 0.0 34.69518985606464" Properties=species:S:1:pos:R:3:initial_magmoms:R:1 pbc="T T T"
Si      -2.08373535      -0.79529409      -0.74775115       0.00000000
Si      -0.10215459      -1.18820889       2.02821254       0.00000000
Si       1.52127423      -0.86915295      -1.60527794       0.00000000
Si       0.12732264       2.40388991       0.15057721       0.00000000
Si      -2.26725849      -0.50378454       2.79445624       0.00000000
Si       2.04840234       1.00849665      -2.96154837       0.00000000
Si      -1.76252913      -2.92486950      -1.65315733       0.00000000
Si       0.16961148      -2.28806082      -3.03364501       0.00000000
Si       1.42213329      -0.28699722       3.52444344       0.00000000
Si      -0.30188628       2.94791075       2.43074636       0.00000000
