10
Lattice="16.28999089631971 0.0 0.0 0.0 16.28999089631971 0.0 0.0 0.0 34.69518985606464" Properties=species:S:1:pos:R:3:initial_magmoms:R:1 pbc="T T T"
Si       0.89163315       0.69753780       2.08081048       0.00000000
Si      -0.24900894      -2.35313937       0.26625104       0.00000000
Si      -1.96153657       1.36045935      -0.00350422       0.00000000
Si       1.46890188       0.93152736      -1.83471736       0.00000000
Si      -0.65603740       3.42174708       0.23263138       0.00000000
Si       1.24685289      -2.75450868       2.08431470       0.00000000
Si       0.73002006       3.24651555      -1.75092843       0.00000000
Si      -3.08727170       0.80145171      -2.06099951       0.00000000
Si       0.22141368       2.95728660       2.42703397       0.00000000
Si      -2.47589171      -2.77571826       0.94329335       0.00000000
