10
Lattice="16.28999089631971 0.0 0.0 0.0 16.28999089631971 0.0 0.0 0.0 34.69518985606464" Properties=species:S:1:pos:R:3:initial_magmoms:R:1 pbc="T T T"
Si      -1.38605746       0.17523153       1.98355981       0.00000000
Si       0.73888182      -2.31498819      -0.08378893       0.00000000
Si       1.98563697       1.39396788      -0.42237948       0.00000000
Si      -1.61903215       0.90609867      -2.12352028       0.00000000
Si       1.08032022      -2.46508425      -2.53615041       0.00000000
Si      -2.69155663      -1.88605620       1.74742421       0.00000000
Si      -0.73002006      -3.24651555       1.75092843       0.00000000
Si      -2.11878166       2.44894609       2.01981630       0.00000000
Si       1.38235311       3.68676976      -0.10026915       0.00000000
Si       3.57316263       1.10135061       1.30467865       0.00000000
