10
Lattice="16.28999089631971 0.0 0.0 0.0 16.28999089631971 0.0 0.0 0.0 34.69518985606464" Properties=species:S:1:pos:R:3:initial_magmoms:R:1 pbc="T T T"
Si      -0.73272420       2.27371456       0.03625649       0.00000000
Si       0.87745108      -0.46446048       2.19440259       0.00000000
Si       1.38605746      -0.17523153      -1.98355981       0.00000000
Si      -1.30549917      -2.06128773      -0.23613559       0.00000000
Si       0.65603740      -3.42174708      -0.23263138       0.00000000
Si       1.39338796       3.34936151       0.20182203       0.00000000
Si       1.54767055      -2.72420928       1.84817910       0.00000000
Si       2.12493928      -2.49021972      -2.06734874       0.00000000
Si      -0.56057800       0.53892207       3.82833878       0.00000000
Si       2.91917452       0.54379278       2.86641410       0.00000000
