10
Lattice="16.28999089631971 0.0 0.0 0.0 16.28999089631971 0.0 0.0 0.0 34.31420841018396" Properties=species:S:1:pos:R:3:initial_magmoms:R:1 pbc="T T T"
Si       1.33792214      -1.37927334       1.50312788       0.00000000
Si      -1.35451757       1.33007035       1.53481363       0.00000000
Si      -1.71212691      -1.12069824      -1.34151614       0.00000000
Si       0.83680915       1.83095527      -1.40441412       0.00000000
Si      -2.67102147       2.54304004       0.05964499       0.00000000
Si      -3.56302929       0.58449335      -1.15373094       0.00000000
Si      -2.70184215      -2.72290512       0.11404677       0.00000000
Si       0.65571323       0.70305197      -3.71846268       0.00000000
Si      -0.94809918       3.52856876      -1.25387760       0.00000000
Si       2.65044002       2.87157677      -0.09330725       0.00000000
