10
Lattice="16.28999089631971 0.0 0.0 0.0 16.28999089631971 0.0 0.0 0.0 34.31420841018396" Properties=species:S:1:pos:R:3:initial_magmoms:R:1 pbc="T T T"
Si       1.35648459      -1.35455511      -1.36038755       0.00000000
Si      -1.35843939      -1.35664023       1.35671593       0.00000000
Si       1.35703845       1.35804496       1.35675024       0.00000000
Si      -1.35664749       1.35964953      -1.36526017       0.00000000
Si       2.71409319       0.00120340       2.71408383       0.00000000
Si      -0.00089595      -2.71402077       2.71439266       0.00000000
Si      -2.71464705      -2.71415109      -0.00030883       0.00000000
Si       2.71453302      -2.71447689      -0.00044608       0.00000000
Si       2.71332756       2.71614389      -0.00013726       0.00000000
Si      -2.71577106       0.00033075       2.71435834       0.00000000
