10
Lattice="16.28999089631971 0.0 0.0 0.0 16.28999089631971 0.0 0.0 0.0 34.31420841018396" Properties=species:S:1:pos:R:3:initial_magmoms:R:1 pbc="T T T"
Si      -1.35614250      -1.35741312      -1.35678456       0.00000000
Si       1.35707103       1.35729909      -1.35664730       0.00000000
Si      -1.35736425       1.35720135       1.35753947       0.00000000
Si       1.35747828      -1.35746199       1.35798556       0.00000000
Si       2.71466334      -2.71471221       0.00003431       0.00000000
Si      -0.00053757       2.71453302       2.71501032       0.00000000
Si      -2.71564074       0.00003258       2.71404952       0.00000000
Si      -2.71476108       2.71505430       0.00013726       0.00000000
Si       2.71507059      -0.00083079       2.71477012       0.00000000
Si      -2.71492398      -2.71511946      -0.00051471       0.00000000
