10
Lattice="16.28999089631971 0.0 0.0 0.0 16.28999089631971 0.0 0.0 0.0 34.31420841018396" Properties=species:S:1:pos:R:3:initial_magmoms:R:1 pbc="T T T"
Si      -1.40525685       1.27172772       1.39537434       0.00000000
Si       1.30763088      -1.43923779       1.37493335       0.00000000
Si      -1.68370182      -1.11118977      -1.33723716       0.00000000
Si       0.93996558       1.58109111      -1.58958398       0.00000000
Si       0.00270414      -1.79590734      -2.92457901       0.00000000
Si      -2.73366237       2.49769683      -0.07977715       0.00000000
Si       2.60174106       2.67172290      -0.17133780       0.00000000
Si      -1.03286745       3.21698178      -1.62358938       0.00000000
Si      -0.05701500       2.63295270       2.75152408       0.00000000
Si       2.65966830      -0.08289981       2.74311710       0.00000000
