10
Lattice="16.28999089631971 0.0 0.0 0.0 16.28999089631971 0.0 0.0 0.0 34.31420841018396" Properties=species:S:1:pos:R:3:initial_magmoms:R:1 pbc="T T T"
Si      -1.35682668      -1.35733167      -1.35747084       0.00000000
Si       1.35788553       1.35801585      -1.35719633       0.00000000
Si      -1.35576783       1.35917244       1.35997578       0.00000000
Si       1.35687555      -1.35702216       1.36426506       0.00000000
Si       0.03192840       2.69333973       2.72098099       0.00000000
Si      -2.71422351       0.00052128      -2.71487306       0.00000000
Si       0.00053757      -2.71453302      -2.71501032       0.00000000
Si      -2.71510317      -2.71450044      -0.00096080       0.00000000
Si       2.71575477       0.00065160      -2.71439266       0.00000000
Si       0.00068418       2.71539639      -2.71480443       0.00000000
