10
Lattice="16.28999089631971 0.0 0.0 0.0 16.28999089631971 0.0 0.0 0.0 34.31420841018396" Properties=species:S:1:pos:R:3:initial_magmoms:R:1 pbc="T T T"
Si      -2.01766311       0.84111786       0.78277616       0.00000000
Si       1.66682538       1.03120587       1.27117056       0.00000000
Si       0.24754284      -2.35928070      -0.27650405       0.00000000
Si       0.16532721       1.15142788      -2.09649636       0.00000000
Si      -0.40876497      -0.79583166      -3.29245014       0.00000000
Si       3.40042347       0.72936846      -0.26010185       0.00000000
Si      -2.50216029      -1.42443018      -2.18245350       0.00000000
Si      -3.43225413       0.46965699      -1.07022644       0.00000000
Si       0.58168332       3.07257812       1.84267402       0.00000000
Si       2.42017272       1.81646599      -2.15695803       0.00000000
