10
Lattice="16.28999089631971 0.0 0.0 0.0 16.28999089631971 0.0 0.0 0.0 34.31420841018396" Properties=species:S:1:pos:R:3:initial_magmoms:R:1 pbc="T T T"
Si       1.08356193       1.54860885       1.33540679       0.00000000
Si      -1.21792185      -1.32165168       1.51593395       0.00000000
Si       1.34170956      -1.33061281      -1.40564802       0.00000000
Si      -1.38443823       1.39833360      -1.39847635       0.00000000
Si       2.30040864      -0.17308125       2.90133657       0.00000000
Si       2.65447179       2.68042176      -0.04234376       0.00000000
Si      -2.61622287       2.76547185       0.20519908       0.00000000
Si      -2.77345395      -2.63733862       0.06674117       0.00000000
Si       2.56868865      -2.85943976       0.03716231       0.00000000
Si      -0.01861947      -2.66695712      -2.77886909       0.00000000
