10
Lattice="16.28999089631971 0.0 0.0 0.0 16.28999089631971 0.0 0.0 0.0 34.31420841018396" Properties=species:S:1:pos:R:3:initial_magmoms:R:1 pbc="T T T"
Si      -1.95245424       1.35995436      -0.22839550       0.00000000
Si       0.06072912      -0.35184282      -2.37698086       0.00000000
Si       0.29102085       2.13296373       1.17694369       0.00000000
Si       0.67735449      -1.54839317       1.80352149       0.00000000
Si       2.77907400      -0.44051255       1.40969710       0.00000000
Si       3.57905961       0.79672761      -0.99157823       0.00000000
Si       2.72173320       1.93867290       2.07954513       0.00000000
Si      -3.43142334       1.56973698       1.65363694       0.00000000
Si       1.27865097       0.96980886      -3.89291481       0.00000000
Si       0.08452881      -1.00540903       4.08888336       0.00000000
