10
Lattice="16.28999089631971 0.0 0.0 0.0 16.28999089631971 0.0 0.0 0.0 34.31420841018396" Properties=species:S:1:pos:R:3:initial_magmoms:R:1 pbc="T T T"
Si      -1.30535028       1.20054042       1.60983826       0.00000000
Si      -1.81363086      -1.04062149      -1.31110687       0.00000000
Si       1.23315300       1.67545908      -1.53644840       0.00000000
Si       1.39774716      -1.50161220       1.60002782       0.00000000
Si      -2.73210504       2.47331070       0.18714293       0.00000000
Si       2.72104902       2.55409281       0.12969062       0.00000000
Si      -3.59853919       0.65699199      -1.16057035       0.00000000
Si      -2.65044002      -2.87157677       0.09330725       0.00000000
Si       0.04579119       2.55177963       2.98618193       0.00000000
Si       2.70286938      -2.86770952       0.17810800       0.00000000
