10
Lattice="16.28999089631971 0.0 0.0 0.0 16.28999089631971 0.0 0.0 0.0 34.31420841018396" Properties=species:S:1:pos:R:3:initial_magmoms:R:1 pbc="T T T"
Si      -1.35229222       1.35852084      -1.35891204       0.00000000
Si      -1.35517555      -1.35814617       1.35712770       0.00000000
Si       1.35918221       1.35710361       1.35723064       0.00000000
Si       1.35899487      -1.36041048      -1.35822576       0.00000000
Si      -2.71366381       0.00026064       2.71425540       0.00000000
Si      -2.71284931      -2.71529865       0.00013726       0.00000000
Si       0.00144655      -2.71498914       2.71418677       0.00000000
Si      -2.71462492       2.71495656       0.00030883       0.00000000
Si       2.71452976      -2.71510317      -0.00003431       0.00000000
Si       0.00176864       2.71511946       2.71459854       0.00000000
