10
Lattice="16.28999089631971 0.0 0.0 0.0 16.28999089631971 0.0 0.0 0.0 34.31420841018396" Properties=species:S:1:pos:R:3:initial_magmoms:R:1 pbc="T T T"
Si      -1.28532987      -1.24813980      -1.40856473       0.00000000
Si       2.02077450       0.41936976      -1.04788788       0.00000000
Si      -1.25540514       1.89314235      -0.54315991       0.00000000
Si       0.64285227       0.00089595       2.26072426       0.00000000
Si       2.43221103       2.49522075       0.01657377       0.00000000
Si       0.31236075       3.48617437       0.17551727       0.00000000
Si       0.17842437      -2.97066069      -2.08043730       0.00000000
Si       0.77814072      -3.64451283       0.18828217       0.00000000
Si       2.53289952       1.56177117       2.31185246       0.00000000
Si      -2.05809489       0.11023443      -3.16130116       0.00000000
