10
Lattice="16.28999089631971 0.0 0.0 0.0 16.28999089631971 0.0 0.0 0.0 34.31420841018396" Properties=species:S:1:pos:R:3:initial_magmoms:R:1 pbc="T T T"
Si      -0.17593200      -0.38608929       2.31470054       0.00000000
Si       2.44188729      -0.05077593      -0.30519074       0.00000000
Si       0.05734080      -2.37918545      -0.66984804       0.00000000
Si      -0.57985884       2.45052099      -0.34365699       0.00000000
Si      -2.43071235       0.19429083      -0.90260144       0.00000000
Si       0.85732641      -1.14194529      -3.07112337       0.00000000
Si      -3.22349778       0.90518643       1.23586122       0.00000000
Si      -1.94846319       2.86676307       1.53899311       0.00000000
Si      -2.46982464      -0.68116635       2.81438432       0.00000000
Si       1.15354377      -2.16691698       2.95617071       0.00000000
