10
Lattice="16.28999089631971 0.0 0.0 0.0 16.28999089631971 0.0 0.0 0.0 34.31420841018396" Properties=species:S:1:pos:R:3:initial_magmoms:R:1 pbc="T T T"
Si      -1.46588823      -1.72934640       0.68889243       0.00000000
Si       1.67868450      -0.10099800       1.67528922       0.00000000
Si      -1.25871201       2.01912921       0.25526354       0.00000000
Si       0.90427419       0.38112084      -2.21028234       0.00000000
Si       2.80574073       1.65767040      -1.35788261       0.00000000
Si      -0.78315804       2.24748243       2.63402874       0.00000000
Si       0.27445392       0.31721517       3.59712616       0.00000000
Si      -0.82877004       3.35564226      -1.62567085       0.00000000
Si       2.59297704      -2.29597776       1.63984262       0.00000000
Si       3.30538828       1.60067169       1.12468312       0.00000000
