10
Lattice="16.28999089631971 0.0 0.0 0.0 16.28999089631971 0.0 0.0 0.0 34.31420841018396" Properties=species:S:1:pos:R:3:initial_magmoms:R:1 pbc="T T T"
Si      -1.97778519      -0.85750560      -0.94518540       0.00000000
Si       0.45001125       1.72864593      -1.54908149       0.00000000
Si       1.42071606      -1.81682370      -0.70368187       0.00000000
Si      -1.34869797      -0.01431891       2.29731150       0.00000000
Si      -3.26190960      -0.80443278       1.01993315       0.00000000
Si       1.29225312       2.54672973       2.30430474       0.00000000
Si       1.07375535       0.55224729      -3.62543540       0.00000000
Si       3.18902229      -1.90322586       0.90665052       0.00000000
Si       2.32852518       2.91840237      -0.95808755       0.00000000
Si       0.05374071      -1.38090330       3.66944481       0.00000000
