10
Lattice="16.28999089631971 0.0 0.0 0.0 16.28999089631971 0.0 0.0 0.0 34.31420841018396" Properties=species:S:1:pos:R:3:initial_magmoms:R:1 pbc="T T T"
Si      -1.64413341      -0.24146667       1.62350905       0.00000000
Si       1.65667412       1.09864647       1.23414551       0.00000000
Si      -0.93742434       1.57363029      -1.47077642       0.00000000
Si       0.70270240      -2.18536866      -0.68237273       0.00000000
Si      -1.10400588       0.06494823      -3.32755359       0.00000000
Si       1.79750117      -0.33172956       3.08930991       0.00000000
Si      -0.40360104      -1.05541281       3.42480011       0.00000000
Si      -2.79712332       2.48406210      -0.08094726       0.00000000
Si       0.63276471       3.02404302       2.18300253       0.00000000
Si       0.70281317       3.31508016      -1.69817681       0.00000000
