10
Lattice="16.28999089631971 0.0 0.0 0.0 16.28999089631971 0.0 0.0 0.0 34.31420841018396" Properties=species:S:1:pos:R:3:initial_magmoms:R:1 pbc="T T T"
Si       0.21364335       2.14527897      -0.91341042       0.00000000
Si      -2.23140257      -0.83087145       0.23416029       0.00000000
Si       0.81518418      -0.09604584       2.27781274       0.00000000
Si       1.25128377      -1.16062992      -1.72339777       0.00000000
Si      -1.82336413      -2.30384583       2.07532448       0.00000000
Si       2.31068763       2.83745736      -0.11529580       0.00000000
Si       0.57570489      -3.40330680      -1.36910337       0.00000000
Si       0.01602936       1.86466743      -3.24283176       0.00000000
Si       2.48378517      -1.76805144       2.25571438       0.00000000
Si      -0.29494674      -3.73531329       0.82347283       0.00000000
