10
Lattice="16.28999089631971 0.0 0.0 0.0 16.28999089631971 0.0 0.0 0.0 34.31420841018396" Properties=species:S:1:pos:R:3:initial_magmoms:R:1 pbc="T T T"
Si       1.36382161       1.35128808      -1.34709079       0.00000000
Si       1.35452002      -1.35876519       1.36275523       0.00000000
Si      -1.36089985       1.35560493       1.36097089       0.00000000
Si      -1.37596810      -1.37246508      -1.36856463       0.00000000
Si       0.03541609       2.57725719      -2.82224228       0.00000000
Si       2.70773032      -2.71637379       0.00140688       0.00000000
Si       2.71206346       2.71251306       0.00905896       0.00000000
Si      -2.71469659      -2.71515204       0.00332848       0.00000000
Si       2.71173766      -0.00099369       2.71919665       0.00000000
Si      -2.71731928       2.71443528       0.00154414       0.00000000
