10
Lattice="16.28999089631971 0.0 0.0 0.0 16.28999089631971 0.0 0.0 0.0 34.31420841018396" Properties=species:S:1:pos:R:3:initial_magmoms:R:1 pbc="T T T"
Si      -1.32840552       1.22596911      -1.47515149       0.00000000
Si      -1.36382161      -1.35128808       1.34709079       0.00000000
Si       1.34824185       1.36122498       1.35614975       0.00000000
Si       1.40525685      -1.27172772      -1.39537434       0.00000000
Si      -2.28621842      -0.76079187      -2.57622985       0.00000000
Si       0.37238940       1.94525406      -3.01896372       0.00000000
Si      -0.27844497      -2.38291749      -2.73261149       0.00000000
Si       2.34522243       0.30936339      -2.98495832       0.00000000
Si       2.70370017       0.00539199       2.70898817       0.00000000
Si      -0.00930159      -2.71005327       2.70984602       0.00000000
