10
Lattice="16.28999089631971 0.0 0.0 0.0 16.28999089631971 0.0 0.0 0.0 34.31420841018396" Properties=species:S:1:pos:R:3:initial_magmoms:R:1 pbc="T T T"
Si       1.35721764       1.35777150       1.35644142       0.00000000
Si       1.35321030      -1.35760860      -1.36134835       0.00000000
Si      -1.35774218      -1.35780408       1.35671593       0.00000000
Si      -1.35452002       1.35876519      -1.36275523       0.00000000
Si       0.00930159       2.71005327      -2.70984602       0.00000000
Si      -0.00011403      -2.71485882       2.71329460       0.00000000
Si       2.71300176       2.71544526      -0.00085786       0.00000000
Si       2.71461447      -0.00008145       2.71384363       0.00000000
Si      -0.00006516       2.71479366       2.71408383       0.00000000
Si      -2.71515574       0.00021177       2.71408383       0.00000000
