10
Lattice="16.28999089631971 0.0 0.0 0.0 16.28999089631971 0.0 0.0 0.0 34.31420841018396" Properties=species:S:1:pos:R:3:initial_magmoms:R:1 pbc="T T T"
Si       1.31551573      -1.30790781      -1.53669405       0.00000000
Si      -1.66214219       1.17514335      -1.38142217       0.00000000
Si       0.07588420      -1.36327752       2.06300568       0.00000000
Si       1.32076600       2.11783751       0.16738480       0.00000000
Si       2.38377972      -1.96812522       1.77555539       0.00000000
Si      -1.22946350       3.49395155       0.44066331       0.00000000
Si      -0.33703214       2.49477182      -2.99621541       0.00000000
Si       3.66736656       1.41622721       0.27990115       0.00000000
Si       2.56401228       0.06334401      -3.01004404       0.00000000
Si      -0.10717598      -2.62528011      -2.99515167       0.00000000
