10
Lattice="16.28999089631971 0.0 0.0 0.0 16.28999089631971 0.0 0.0 0.0 34.51530692428229" Properties=species:S:1:pos:R:3:initial_magmoms:R:1 pbc="T T T"
Si      -0.33663285       0.50446872      -2.30748762       0.00000000
Si       2.21984319      -0.47627073       0.82715979       0.00000000
Si      -1.07627704      -2.05120422       0.77138303       0.00000000
Si      -0.83976416       1.77111396       1.46828198       0.00000000
Si       2.36793558      -2.69592984      -0.47689826       0.00000000
Si       0.39821068       3.65508504       0.71343179       0.00000000
Si       3.47164824       1.40382333       0.14306603       0.00000000
Si      -3.15949667       1.87123230       0.99072792       0.00000000
Si      -2.60962772       0.69182001      -2.73516703       0.00000000
Si       0.98346477       2.24424072      -2.98240031       0.00000000
