10
Lattice="16.28999089631971 0.0 0.0 0.0 16.28999089631971 0.0 0.0 0.0 34.51530692428229" Properties=species:S:1:pos:R:3:initial_magmoms:R:1 pbc="T T T"
Si      -1.34423451      -1.36012866       1.38191773       0.00000000
Si       1.36625859       1.36016613       1.38336737       0.00000000
Si       1.22155452      -1.46946551      -1.46021920       0.00000000
Si      -1.49705100       1.28298411      -1.42939011       0.00000000
Si      -0.68567868      -2.49131115      -2.74029742       0.00000000
Si      -2.69469180       2.71601541       0.02026740       0.00000000
Si       2.71373481       2.70946683      -0.00432132       0.00000000
Si      -2.69200395      -2.73161213       0.00010009       0.00000000
Si       2.70798444      -2.73660271      -0.00281645       0.00000000
Si      -2.70514998      -0.00226431       2.74316768       0.00000000
