10
Lattice="16.28999089631971 0.0 0.0 0.0 16.28999089631971 0.0 0.0 0.0 34.51530692428229" Properties=species:S:1:pos:R:3:initial_magmoms:R:1 pbc="T T T"
Si      -1.35654975      -1.35656441       1.35669393       0.00000000
Si       1.35720135      -1.35747991      -1.35676296       0.00000000
Si       1.35676152       1.35770634       1.35772939       0.00000000
Si      -1.35842310       1.35804843      -1.35672844       0.00000000
Si      -0.00008145      -2.71139624       2.71483750       0.00000000
Si       0.00024435      -2.71515998      -2.71331882       0.00000000
Si       2.71381626       0.00013032      -2.71480298       0.00000000
Si       2.71440270      -2.71441299       0.00062128       0.00000000
Si      -0.00109143       2.71484253      -2.71418171       0.00000000
Si      -2.71559187      -2.71407718       0.00041418       0.00000000
