10
Lattice="16.28999089631971 0.0 0.0 0.0 16.28999089631971 0.0 0.0 0.0 34.51530692428229" Properties=species:S:1:pos:R:3:initial_magmoms:R:1 pbc="T T T"
Si       0.53985060       2.12361327      -0.79147095       0.00000000
Si      -2.10405224      -0.64373193      -1.00025415       0.00000000
Si       1.44770859      -2.05556505       0.45215077       0.00000000
Si       1.76215446       0.61240626      -2.38832251       0.00000000
Si       2.98423026      -0.88803306      -1.04502053       0.00000000
Si      -0.93858907      -2.12917468      -2.40002321       0.00000000
Si       0.24206940      -3.60763946      -0.91134267       0.00000000
Si       0.41259312      -0.76401729      -3.76624337       0.00000000
Si       1.73306052       3.54639816       0.99597425       0.00000000
Si      -3.33173573      -2.43847128       0.31816228       0.00000000
