10
Lattice="16.28999089631971 0.0 0.0 0.0 16.28999089631971 0.0 0.0 0.0 34.51530692428229" Properties=species:S:1:pos:R:3:initial_magmoms:R:1 pbc="T T T"
Si       2.22519771       0.66451797      -0.50288830       0.00000000
Si       0.29017377      -1.77344343      -1.60309884       0.00000000
Si      -0.42241599      -1.02627000       2.14764714       0.00000000
Si      -1.09649619       2.17960200      -0.91679609       0.00000000
Si       0.56581686       3.69383895      -0.19290616       0.00000000
Si       3.06724410       1.60376679       1.46027442       0.00000000
Si       0.85843413       0.00887805       3.77528638       0.00000000
Si      -2.70097974       2.68135029       0.96836199       0.00000000
Si      -1.86979878      -3.13772767      -1.44746924       0.00000000
Si      -2.70987408      -0.95346999       2.75318403       0.00000000
