10
Lattice="16.28999089631971 0.0 0.0 0.0 16.28999089631971 0.0 0.0 0.0 34.51530692428229" Properties=species:S:1:pos:R:3:initial_magmoms:R:1 pbc="T T T"
Si      -1.28085012      -1.03514805      -1.62763924       0.00000000
Si      -0.48972627       2.27823795      -0.03133992       0.00000000
Si      -0.65510235      -1.05057468       1.99619389       0.00000000
Si       2.26198053      -0.05584212      -0.65589474       0.00000000
Si      -0.46022508      -3.21825566      -1.06376235       0.00000000
Si       0.00659745      -3.16899470       1.29139093       0.00000000
Si       0.19951992       2.73847932       2.23321064       0.00000000
Si       2.20880997       1.59488874      -2.31501196       0.00000000
Si       3.29514120       0.74951919       1.33553603       0.00000000
Si       1.72344942       1.07571015       3.11756232       0.00000000
