10
Lattice="16.28999089631971 0.0 0.0 0.0 16.28999089631971 0.0 0.0 0.0 34.51530692428229" Properties=species:S:1:pos:R:3:initial_magmoms:R:1 pbc="T T T"
Si      -1.35676152      -1.35770634      -1.35772939       0.00000000
Si       1.35816246       1.35760860      -1.35731520       0.00000000
Si      -1.35659862       1.35703845       1.35945515       0.00000000
Si       1.36145304      -1.35772263       1.36138801       0.00000000
Si      -2.71331127      -2.71427075      -0.00103546       0.00000000
Si       2.71352304      -2.71513086       0.00003452       0.00000000
Si      -2.71552671       2.71406061       0.00120804       0.00000000
Si      -2.71518462       0.00034209      -2.71445783       0.00000000
Si       0.00043983      -2.71518625      -2.71449235       0.00000000
Si       0.00040725       2.71492398      -2.71494104       0.00000000
