10
Lattice="16.28999089631971 0.0 0.0 0.0 16.28999089631971 0.0 0.0 0.0 34.51530692428229" Properties=species:S:1:pos:R:3:initial_magmoms:R:1 pbc="T T T"
Si       1.35659862      -1.35703845      -1.35945515       0.00000000
Si      -1.35892809       1.35702216      -1.35824712       0.00000000
Si      -1.36668213      -1.33968960       1.37581542       0.00000000
Si       1.34633592       1.36469475       1.39652461       0.00000000
Si      -2.71552671       2.71454931       0.00165674       0.00000000
Si       2.71476108       0.00057015      -2.71677036       0.00000000
Si      -0.00016290      -2.71474479      -2.71718454       0.00000000
Si      -0.00053757       2.71559187      -2.71642520       0.00000000
Si      -2.71555929       0.00013032      -2.71645972       0.00000000
Si      -2.71624347      -2.71611315      -0.00210543       0.00000000
