10
Lattice="16.28999089631971 0.0 0.0 0.0 16.28999089631971 0.0 0.0 0.0 34.51530692428229" Properties=species:S:1:pos:R:3:initial_magmoms:R:1 pbc="T T T"
Si      -1.25951022       1.46346102      -1.46231083       0.00000000
Si       1.45971432      -1.25587755      -1.48222617       0.00000000
Si       1.66052115       1.06754886       1.43028060       0.00000000
Si      -1.01877660      -1.91782170       1.29939849       0.00000000
Si       2.79676494      -2.53930149       0.04428316       0.00000000
Si       0.88682760      -3.53981700       1.22132482       0.00000000
Si      -2.60584614       0.09876627      -2.85883544       0.00000000
Si       0.11220552      -2.61599481      -2.85690258       0.00000000
Si      -2.75045247      -2.74136265      -0.13971804       0.00000000
Si      -2.66828571       2.84423400       0.14979652       0.00000000
