10
Lattice="16.28999089631971 0.0 0.0 0.0 16.28999089631971 0.0 0.0 0.0 34.51530692428229" Properties=species:S:1:pos:R:3:initial_magmoms:R:1 pbc="T T T"
Si       0.48972627      -2.27823795       0.03133992       0.00000000
Si      -2.24024967       0.43468236      -0.49156728       0.00000000
Si       1.19599551       1.01358009      -1.78420076       0.00000000
Si       0.68924619       0.46024137       2.26455055       0.00000000
Si      -1.83018150       2.82204702      -0.15759698       0.00000000
Si       2.69853624      -0.68334921      -2.28367204       0.00000000
Si      -3.25076724      -1.45999125       0.64074252       0.00000000
Si       2.75170680      -2.33408007      -0.62455483       0.00000000
Si      -0.79112385      -3.31338600      -1.59629932       0.00000000
Si       2.53882908       1.85878674       2.11043962       0.00000000
