10
Lattice="16.28999089631971 0.0 0.0 0.0 16.28999089631971 0.0 0.0 0.0 34.51530692428229" Properties=species:S:1:pos:R:3:initial_magmoms:R:1 pbc="T T T"
Si      -0.86328855      -2.09455191       0.58613927       0.00000000
Si       1.53503928      -0.63732996      -1.71886325       0.00000000
Si      -1.98729855       1.25597529      -0.47220418       0.00000000
Si       1.02745917       1.05386526       1.94535282       0.00000000
Si      -2.18013957      -1.58974110       2.48579379       0.00000000
Si      -2.05868133       2.92341969       1.24627940       0.00000000
Si       3.26695950       0.36447246       2.05203969       0.00000000
Si       3.05896878      -2.30009913      -0.83451156       0.00000000
Si      -1.45049418      -3.39934833      -1.34433744       0.00000000
Si       3.38462217       0.76121541      -1.87297418       0.00000000
