10
Lattice="16.28999089631971 0.0 0.0 0.0 16.28999089631971 0.0 0.0 0.0 34.51530692428229" Properties=species:S:1:pos:R:3:initial_magmoms:R:1 pbc="T T T"
Si      -1.97842050       1.16206344      -0.62866215       0.00000000
Si       1.02726369      -0.79711857      -2.03233144       0.00000000
Si      -1.00449027      -2.05700346       0.77680193       0.00000000
Si       1.73395647       1.07199603       1.40007969       0.00000000
Si      -1.46986299       0.23568372       2.75811972       0.00000000
Si      -3.27779235       0.69512688       1.16730833       0.00000000
Si      -1.26009666       3.32009748      -0.90751147       0.00000000
Si       2.09321613      -2.77226478      -1.47911979       0.00000000
Si       3.74533164       0.42534819       0.22600636       0.00000000
Si      -3.40777026      -1.59739740       0.61941204       0.00000000
