10
Lattice="16.28999089631971 0.0 0.0 0.0 16.28999089631971 0.0 0.0 0.0 34.51530692428229" Properties=species:S:1:pos:R:3:initial_magmoms:R:1 pbc="T T T"
Si      -2.25694692       0.50859009      -0.07455310       0.00000000
Si      -0.08373060      -1.12458015       2.06953896       0.00000000
Si       0.84496230      -1.37116188      -1.77529580       0.00000000
Si       1.53746649       2.19009276      -0.01711960       0.00000000
Si      -2.30788575       1.46168541      -2.17615680       0.00000000
Si      -3.08043900      -1.77316650       0.17851327       0.00000000
Si       2.16344232      -0.25674669       2.94391572       0.00000000
Si       0.58448520      -3.31133346       1.82513593       0.00000000
Si      -2.82603807       2.25033318       1.38375394       0.00000000
Si       2.48974731      -2.99776725      -0.22880210       0.00000000
