10
Lattice="16.28999089631971 0.0 0.0 0.0 16.28999089631971 0.0 0.0 0.0 34.51530692428229" Properties=species:S:1:pos:R:3:initial_magmoms:R:1 pbc="T T T"
Si       1.79447382       0.39715020      -1.40101161       0.00000000
Si      -1.83980889       1.18283319      -0.84493519       0.00000000
Si       0.81868653       0.53439345       2.16455965       0.00000000
Si      -0.37906830      -2.34667224       0.03917490       0.00000000
Si      -1.45730340      -2.23879986       2.13798285       0.00000000
Si      -3.46520880      -0.47711781      -0.65989852       0.00000000
Si       1.86043203      -3.03606504       0.14586177       0.00000000
Si       2.56323150      -1.81354941      -1.70792189       0.00000000
Si      -3.28662153      -0.87306255       1.64482787       0.00000000
Si       1.15421166       2.08081944      -2.94094740       0.00000000
