10
Lattice="16.28999089631971 0.0 0.0 0.0 16.28999089631971 0.0 0.0 0.0 34.51530692428229" Properties=species:S:1:pos:R:3:initial_magmoms:R:1 pbc="T T T"
Si      -1.82568546      -1.03695624       1.08309094       0.00000000
Si      -1.28111076       1.39333257      -1.43317989       0.00000000
Si       1.44647055      -1.32146109      -1.42261820       0.00000000
Si       1.45564182       1.24304103       1.51052874       0.00000000
Si       2.01966678      -0.30854889       3.24212814       0.00000000
Si       2.78106138       2.63554281       0.12988117       0.00000000
Si      -2.80041390       2.62185921       0.04473186       0.00000000
Si      -2.62966212       0.03749958      -2.80568184       0.00000000
Si       0.08824293      -2.67789681      -2.80571635       0.00000000
Si      -2.71423980      -2.77356798      -0.11331382       0.00000000
