10
Lattice="16.28999089631971 0.0 0.0 0.0 16.28999089631971 0.0 0.0 0.0 34.51530692428229" Properties=species:S:1:pos:R:3:initial_magmoms:R:1 pbc="T T T"
Si      -1.33705062       1.28342394      -1.52650933       0.00000000
Si       0.86457546       1.78577496       1.37395159       0.00000000
Si      -1.90993734      -1.00051551       1.17704165       0.00000000
Si       1.38005622      -1.43592115      -1.50773299       0.00000000
Si       2.66103666       2.63518443      -0.01891440       0.00000000
Si      -2.79676494       2.53930149      -0.04428316       0.00000000
Si       0.02445129       2.63868678      -2.90449922       0.00000000
Si       1.36192545       0.78327207       3.61175277       0.00000000
Si      -2.68455942      -0.07669332      -2.90118574       0.00000000
Si      -2.70790299      -2.90798396       0.03482596       0.00000000
