10
Lattice="16.28999089631971 0.0 0.0 0.0 16.28999089631971 0.0 0.0 0.0 34.51530692428229" Properties=species:S:1:pos:R:3:initial_magmoms:R:1 pbc="T T T"
Si      -0.49734999       1.00250289      -2.23780118       0.00000000
Si       1.75625748       0.67507389       1.70371102       0.00000000
Si       1.27135305      -2.11407222      -0.69617413       0.00000000
Si      -2.35274841      -0.46020879       0.93926557       0.00000000
Si       1.89332154      -1.53127629       2.57170244       0.00000000
Si      -0.38618703       3.74023287       0.83544347       0.00000000
Si      -1.36192545      -0.78327207      -3.61175277       0.00000000
Si       3.28007295       2.28423267       0.55883765       0.00000000
Si      -2.29089528      -1.18820889       3.19815561       0.00000000
Si       0.79936659       1.74547350       3.66732244       0.00000000
