10
Lattice="16.28999089631971 0.0 0.0 0.0 16.28999089631971 0.0 0.0 0.0 34.51530692428229" Properties=species:S:1:pos:R:3:initial_magmoms:R:1 pbc="T T T"
Si       0.83077371       1.53381753       1.51294481       0.00000000
Si       1.16455581       0.00757485      -2.01269222       0.00000000
Si      -1.97141580       1.11969315      -0.72109420       0.00000000
Si       0.46863072      -2.02807242       1.19688797       0.00000000
Si       0.36996219       3.60769743       0.51900696       0.00000000
Si      -0.57143691      -3.69565433      -0.03026994       0.00000000
Si       3.50166582      -0.36603630      -1.42686359       0.00000000
Si       0.18093303      -1.63572777      -3.43323950       0.00000000
Si      -0.43631136       1.50509826       3.48956851       0.00000000
Si      -1.38531789       3.42803502      -1.02096335       0.00000000
