10
Lattice="16.28999089631971 0.0 0.0 0.0 16.28999089631971 0.0 0.0 0.0 34.51530692428229" Properties=species:S:1:pos:R:3:initial_magmoms:R:1 pbc="T T T"
Si      -1.97146467      -0.46905426      -1.21128086       0.00000000
Si       1.55667240       0.29887263      -1.83852788       0.00000000
Si       0.37726011      -2.17963295       1.14449370       0.00000000
Si      -0.31934916       2.72855871       0.49384529       0.00000000
Si       1.72761966       2.16598356       1.77709060       0.00000000
Si       0.72005058      -1.38912975      -3.29307276       0.00000000
Si      -3.15486801      -1.92414548       0.19784185       0.00000000
Si      -3.03741711       1.50609195      -1.76449251       0.00000000
Si      -2.16792207      -0.85841784       3.08397891       0.00000000
Si       0.89176347       2.22068538      -3.08970846       0.00000000
