10
Lattice="16.28999089631971 0.0 0.0 0.0 16.28999089631971 0.0 0.0 0.0 34.51530692428229" Properties=species:S:1:pos:R:3:initial_magmoms:R:1 pbc="T T T"
Si       1.35285192      -1.35482301      -1.35869582       0.00000000
Si       1.35640314       1.35827649       1.35648684       0.00000000
Si      -1.35835794      -1.35668007       1.35676296       0.00000000
Si      -1.35685926       1.35715248      -1.36352796       0.00000000
Si       0.01001835      -2.71036278      -2.70519046       0.00000000
Si       2.71347417       2.71410948       0.00003452       0.00000000
Si       2.71386513      -2.71440270      -0.00031064       0.00000000
Si       2.71407690       0.00076563       2.71438880       0.00000000
Si      -0.00148239      -2.71394658       2.71456138       0.00000000
Si      -0.00107514       2.71562445       2.71418171       0.00000000
