10
Lattice="16.28999089631971 0.0 0.0 0.0 16.28999089631971 0.0 0.0 0.0 34.51530692428229" Properties=species:S:1:pos:R:3:initial_magmoms:R:1 pbc="T T T"
Si       1.97141580      -1.11969315       0.72109420       0.00000000
Si      -1.03316067      -0.80536131      -1.99143078       0.00000000
Si      -1.57169178       0.32619096       1.78202629       0.00000000
Si       0.58609791       2.30834187      -0.29986915       0.00000000
Si       3.13597161      -1.11211830      -1.29159802       0.00000000
Si       2.80218951       0.41412438       2.23403900       0.00000000
Si      -3.29514120      -0.74951919      -1.33553603       0.00000000
Si       2.34137799       2.48800428       1.24010116       0.00000000
Si      -1.24603839       3.38750550       0.74356367       0.00000000
Si      -3.09562128       1.98896013       0.89767460       0.00000000
