10
Lattice="16.28999089631971 0.0 0.0 0.0 16.28999089631971 0.0 0.0 0.0 34.51530692428229" Properties=species:S:1:pos:R:3:initial_magmoms:R:1 pbc="T T T"
Si       0.46481886       2.18390256       0.69776183       0.00000000
Si       1.26708507       0.02871927      -1.97662370       0.00000000
Si       0.66490893      -1.92181275       1.25118058       0.00000000
Si      -2.39974506       0.40433409      -0.19335486       0.00000000
Si      -0.17171289      -3.60981513      -0.20336430       0.00000000
Si      -1.27755954       2.55687840       2.22475438       0.00000000
Si       0.09260865       3.45704751      -1.23268036       0.00000000
Si       0.80627355       2.10259917      -2.97056155       0.00000000
Si      -1.21111263       0.50787333       3.58355374       0.00000000
Si       0.43631136      -1.50509826      -3.48956851       0.00000000
