10
Lattice="16.28999089631971 0.0 0.0 0.0 16.28999089631971 0.0 0.0 0.0 34.51530692428229" Properties=species:S:1:pos:R:3:initial_magmoms:R:1 pbc="T T T"
Si       0.12997791       2.29252428       0.54789629       0.00000000
Si      -1.17749007      -0.40226526       2.10274270       0.00000000
Si       2.40327999      -0.45960606       0.15738989       0.00000000
Si      -1.12708881       0.26686278      -2.31014530       0.00000000
Si       1.42934976       2.75946084      -1.24807420       0.00000000
Si       1.93790727       1.83308112       2.13870767       0.00000000
Si       2.10097017      -2.36481115      -1.34992892       0.00000000
Si      -2.67187440      -2.28684721       0.83823921       0.00000000
Si       0.75295638       0.33625818       3.52682577       0.00000000
Si       0.01830996       2.16601614      -3.08529049       0.00000000
