10
Lattice="16.28999089631971 0.0 0.0 0.0 16.28999089631971 0.0 0.0 0.0 34.51530692428229" Properties=species:S:1:pos:R:3:initial_magmoms:R:1 pbc="T T T"
Si       0.76198104       1.84726971      -1.25939522       0.00000000
Si      -0.32687514       1.14818436       2.07616590       0.00000000
Si      -1.97625393      -0.83049678      -1.09858832       0.00000000
Si       1.69142328      -2.04533982       0.42729974       0.00000000
Si       2.09381886       0.51821748      -2.62085227       0.00000000
Si      -0.63599418      -2.19150999      -2.58754498       0.00000000
Si       3.34914255      -0.92349639      -1.19177970       0.00000000
Si       0.28492839      -2.67981903       2.50826327       0.00000000
Si       2.65657320       2.58173694       0.03958908       0.00000000
Si      -0.18663453      -0.62408619       3.67998957       0.00000000
