10
Lattice="16.28999089631971 0.0 0.0 0.0 16.28999089631971 0.0 0.0 0.0 34.51530692428229" Properties=species:S:1:pos:R:3:initial_magmoms:R:1 pbc="T T T"
Si       2.00842668       0.41187636       1.17117405       0.00000000
Si      -0.14024061       1.77227055      -1.60382366       0.00000000
Si      -1.95170490      -0.27981333       1.35890291       0.00000000
Si       0.47156292      -2.05573284      -1.17172629       0.00000000
Si      -1.21634172      -1.85300379       2.93435497       0.00000000
Si      -2.57768073       2.16702612      -1.60213241       0.00000000
Si       0.18663453       0.62408619      -3.67998957       0.00000000
Si      -2.47116042       1.82234601       2.26889948       0.00000000
Si      -1.62539991      -3.02083389      -1.81381491       0.00000000
Si       3.48118929       1.75500315      -0.15894308       0.00000000
