10
Lattice="16.28999089631971 0.0 0.0 0.0 16.28999089631971 0.0 0.0 0.0 34.51530692428229" Properties=species:S:1:pos:R:3:initial_magmoms:R:1 pbc="T T T"
Si      -1.36505313       0.86750766       1.64113473       0.00000000
Si      -1.09586088      -2.00718864      -0.45460136       0.00000000
Si       2.15086644      -0.17607861       0.93305281       0.00000000
Si       0.16205292       1.27249335      -1.97168801       0.00000000
Si      -0.72479097      -0.81616158       3.18107053       0.00000000
Si       2.43105444       0.85239054      -2.44475507       0.00000000
Si       3.43292202      -0.62073045      -0.94302774       0.00000000
Si      -3.36847878      -1.50456069      -0.34946768       0.00000000
Si      -0.41897880       2.76051969       2.51199093       0.00000000
Si       2.77607664       2.05485318       1.52129752       0.00000000
