10
Lattice="16.28999089631971 0.0 0.0 0.0 16.28999089631971 0.0 0.0 0.0 34.51530692428229" Properties=species:S:1:pos:R:3:initial_magmoms:R:1 pbc="T T T"
Si       1.28205558      -0.44465184      -1.87608056       0.00000000
Si      -2.15086644       0.17607861      -0.93305281       0.00000000
Si       0.62521020       2.23093179       0.58824470       0.00000000
Si       0.69015843      -0.98458389       2.09363066       0.00000000
Si       3.34412523       0.09164754      -0.95500456       0.00000000
Si      -0.94920201       0.10262700       3.38612608       0.00000000
Si      -0.55309437       2.30200506       2.61332792       0.00000000
Si       2.95267653       1.80447588       0.73369229       0.00000000
Si       0.28018800       1.02846915      -3.37780788       0.00000000
Si      -2.87565741      -0.64008297       2.24801771       0.00000000
