10
Lattice="16.28999089631971 0.0 0.0 0.0 16.28999089631971 0.0 0.0 0.0 34.51530692428229" Properties=species:S:1:pos:R:3:initial_magmoms:R:1 pbc="T T T"
Si       1.63936044      -1.08721089      -1.29249542       0.00000000
Si      -1.92645540      -0.74270997      -1.13810837       0.00000000
Si       0.39610764       2.19937806      -0.77279815       0.00000000
Si      -0.53649486      -0.46804428       2.26510280       0.00000000
Si      -1.15769772      -2.95340958      -1.44501865       0.00000000
Si       0.94920201      -0.10262700      -3.38612608       0.00000000
Si      -1.62064323       2.83397130      -1.80718797       0.00000000
Si       1.13091696      -3.32423514      -1.28183018       0.00000000
Si      -2.56671756       0.94095927      -2.67804416       0.00000000
Si      -2.90224269      -0.60546672       2.42746289       0.00000000
