10
Lattice="16.28999089631971 0.0 0.0 0.0 16.28999089631971 0.0 0.0 0.0 34.51530692428229" Properties=species:S:1:pos:R:3:initial_magmoms:R:1 pbc="T T T"
Si      -1.35708643       1.35799852      -1.35555492       0.00000000
Si      -1.35690724      -1.35747673       1.35745326       0.00000000
Si       1.35816565       1.35701298       1.35769487       0.00000000
Si       1.35777632      -1.35482146      -1.36118092       0.00000000
Si      -0.00158994       2.69566165      -2.71649423       0.00000000
Si       2.71499722       2.71364581      -0.00069031       0.00000000
Si      -2.71399456      -0.00035230       2.71466492       0.00000000
Si      -2.71445068       2.71455805       0.00027612       0.00000000
Si       0.00065560       2.71457434       2.71459589       0.00000000
Si      -2.71461358      -2.71485727       0.00000000       0.00000000
