10
Lattice="16.28999089631971 0.0 0.0 0.0 16.28999089631971 0.0 0.0 0.0 34.51530692428229" Properties=species:S:1:pos:R:3:initial_magmoms:R:1 pbc="T T T"
Si       1.35454608       1.35599589       1.37626757       0.00000000
Si      -1.36050822      -1.35281934       1.37771721       0.00000000
Si       1.21670010      -1.48393755      -1.43066717       0.00000000
Si      -1.38223908       1.26198630      -1.50277314       0.00000000
Si       2.38422069       0.16102665      -2.63609699       0.00000000
Si      -2.03623371      -0.64581705      -2.97257521       0.00000000
Si      -0.48063645      -2.54233143      -2.80248369       0.00000000
Si      -2.73414618       2.69556561      -0.01053753       0.00000000
Si       2.72885193       2.70611109       0.00129087       0.00000000
Si       2.71782360      -2.71994130      -0.01621185       0.00000000
