10
Lattice="16.28999089631971 0.0 0.0 0.0 16.28999089631971 0.0 0.0 0.0 34.51530692428229" Properties=species:S:1:pos:R:3:initial_magmoms:R:1 pbc="T T T"
Si      -0.94607433      -1.89301203      -0.87085620       0.00000000
Si      -1.05420735       1.11838995       1.70916444       0.00000000
Si       2.01675087      -0.63459324       1.03438981       0.00000000
Si       0.06328665       1.50652416      -1.84422291       0.00000000
Si       2.52382599       1.47398436      -1.76180031       0.00000000
Si       3.19505544      -0.70566651      -0.99069341       0.00000000
Si       0.08477316       3.17248469       1.42216950       0.00000000
Si      -0.30581217      -3.57668127       0.66907960       0.00000000
Si      -2.93866713      -1.11431745      -1.88218977       0.00000000
Si      -3.30965559       1.26498366       1.04467538       0.00000000
