10
Lattice="16.28999089631971 0.0 0.0 0.0 16.28999089631971 0.0 0.0 0.0 34.51530692428229" Properties=species:S:1:pos:R:3:initial_magmoms:R:1 pbc="T T T"
Si      -1.35441576      -1.73863170       0.85000894       0.00000000
Si       2.29819320       0.06320520       0.55124427       0.00000000
Si      -0.41643756       0.64554012      -2.26893400       0.00000000
Si      -0.74991015       2.05705626       1.06749001       0.00000000
Si       0.43349319       3.51214748      -0.34163270       0.00000000
Si       2.45465865      -2.09479626       1.63571582       0.00000000
Si       0.72254295       2.69963486      -2.55592894       0.00000000
Si      -2.96652303       2.32220370       0.40697021       0.00000000
Si       3.51108144       0.45128187      -1.43694206       0.00000000
Si      -3.64542507      -1.21999068       0.35678493       0.00000000
