10
Lattice="16.28999089631971 0.0 0.0 0.0 16.28999089631971 0.0 0.0 0.0 34.51530692428229" Properties=species:S:1:pos:R:3:initial_magmoms:R:1 pbc="T T T"
Si      -1.35691172      -1.35760860       1.35721166       0.00000000
Si       1.35842996       1.35666378       1.35724617       0.00000000
Si       1.35946274      -1.35501849      -1.36021449       0.00000000
Si      -1.35945296       1.35803214      -1.35772939       0.00000000
Si      -2.71463435       2.71287144       0.00048321       0.00000000
Si      -2.71403162      -0.00047241       2.71483750       0.00000000
Si       2.71510677       2.71391400       0.00117352       0.00000000
Si       0.00053308       2.71474479       2.71445783       0.00000000
Si      -2.71424339      -2.71564074       0.00013806       0.00000000
Si       0.00086289      -2.71562445       2.71445783       0.00000000
