10
Lattice="16.28999089631971 0.0 0.0 0.0 16.28999089631971 0.0 0.0 0.0 34.51530692428229" Properties=species:S:1:pos:R:3:initial_magmoms:R:1 pbc="T T T"
Si       0.29620107      -1.85696389      -1.40598181       0.00000000
Si       1.93003920       0.17655102       1.35683199       0.00000000
Si      -0.13706406       2.20635018      -0.86799142       0.00000000
Si      -1.93741857      -0.00636939       1.39745653       0.00000000
Si      -0.62196849      -0.58279593      -3.26787657       0.00000000
Si      -0.95379579       1.63693323       2.81800381       0.00000000
Si      -1.89332154       1.53127629      -2.57170244       0.00000000
Si      -1.09395495       3.27674979       1.09562000       0.00000000
Si       2.62018364      -2.32784819      -0.92563202       0.00000000
Si       2.80106617      -1.97112633       1.44791793       0.00000000
