10
Lattice="16.28999089631971 0.0 0.0 0.0 16.28999089631971 0.0 0.0 0.0 34.51530692428229" Properties=species:S:1:pos:R:3:initial_magmoms:R:1 pbc="T T T"
Si      -1.16455581      -0.00757485       2.01269222       0.00000000
Si      -0.14015916       1.63981656      -1.72238381       0.00000000
Si      -0.98362278      -1.64330262      -1.42054728       0.00000000
Si       2.33711001      -0.37361115       0.58582863       0.00000000
Si       0.95379579      -1.63693323      -2.81800381       0.00000000
Si       2.88383499      -1.46038221      -1.46117182       0.00000000
Si      -3.13597161       1.11211830       1.29159802       0.00000000
Si       1.24626645       3.29813856      -0.79647567       0.00000000
Si       0.81673173       0.56941695      -3.68599523       0.00000000
Si      -0.33378210       1.52624268       3.52563703       0.00000000
