10
Lattice="16.28999089631971 0.0 0.0 0.0 16.28999089631971 0.0 0.0 0.0 34.51530692428229" Properties=species:S:1:pos:R:3:initial_magmoms:R:1 pbc="T T T"
Si       1.34827443       1.35045729       1.39237587       0.00000000
Si      -1.36752921      -1.36363590       1.39185814       0.00000000
Si       1.43580060      -1.38666996      -1.37881825       0.00000000
Si      -1.28842497       1.52876763      -1.49347817       0.00000000
Si      -0.08180838      -2.35686978      -2.90859415       0.00000000
Si       2.68931610       2.70433548       0.01285351       0.00000000
Si      -2.71520091       2.70682785       0.02290437       0.00000000
Si      -2.71036278      -2.71917567       0.04536349       0.00000000
Si       2.70634474      -2.74211199       0.03347296       0.00000000
Si      -0.00690696       2.70529659       2.75058847       0.00000000
