10
Lattice="16.28999089631971 0.0 0.0 0.0 16.28999089631971 0.0 0.0 0.0 34.51530692428229" Properties=species:S:1:pos:R:3:initial_magmoms:R:1 pbc="T T T"
Si      -1.35758662      -1.35609363      -1.35662490       0.00000000
Si       1.35735773       1.35858600      -1.35624523       0.00000000
Si       1.35667355      -1.35765747       1.35810906       0.00000000
Si      -1.35921872       1.35917244       1.36269959       0.00000000
Si      -0.00007656      -2.71365499      -2.71352592       0.00000000
Si       2.71433102       0.00175932      -2.71369849       0.00000000
Si       2.71620437      -2.71285352      -0.00027612       0.00000000
Si      -2.71536122       0.00192222      -2.71387107       0.00000000
Si       2.71398893       2.71547784       0.00196737       0.00000000
Si      -2.71456301      -2.71542408      -0.00044870       0.00000000
