10
Lattice="16.28999089631971 0.0 0.0 0.0 16.28999089631971 0.0 0.0 0.0 34.51530692428229" Properties=species:S:1:pos:R:3:initial_magmoms:R:1 pbc="T T T"
Si       0.19456776       1.84326237      -1.37253646       0.00000000
Si       2.27722701      -0.40984011      -0.06599330       0.00000000
Si      -1.38642561      -1.65832200      -0.92590814       0.00000000
Si      -0.04215852       0.72607788       2.24856996       0.00000000
Si       2.73083021       1.77360633       1.02275815       0.00000000
Si      -1.76596632       2.86829433      -0.67115052       0.00000000
Si      -0.32392665       0.80449794      -3.40635206       0.00000000
Si       2.57487952      -1.84578732       1.66822926       0.00000000
Si      -1.24626645      -3.29813856       0.79647567       0.00000000
Si      -3.48983928       1.28241396      -0.30283747       0.00000000
