10
Lattice="16.28999089631971 0.0 0.0 0.0 16.28999089631971 0.0 0.0 0.0 34.51530692428229" Properties=species:S:1:pos:R:3:initial_magmoms:R:1 pbc="T T T"
Si      -0.83077371      -1.53381753      -1.51294481       0.00000000
Si      -0.46081152       2.07387990      -0.99393785       0.00000000
Si      -1.26708507      -0.02871927       1.97662370       0.00000000
Si       2.33821773      -0.24692382       0.45736259       0.00000000
Si      -0.80226621       2.15518329       2.67438554       0.00000000
Si       1.53789003       2.49797376      -2.07354274       0.00000000
Si      -0.36214299      -3.56188995      -0.31605684       0.00000000
Si      -2.80218951      -0.41412438      -2.23403900       0.00000000
Si      -1.17447642       3.42832824       0.74394334       0.00000000
Si       3.32338806       1.32426297      -0.96974261       0.00000000
