10
Lattice="16.28999089631971 0.0 0.0 0.0 16.28999089631971 0.0 0.0 0.0 34.51530692428229" Properties=species:S:1:pos:R:3:initial_magmoms:R:1 pbc="T T T"
Si      -0.44890353       1.58110740      -1.62294515       0.00000000
Si       2.25794780      -0.54610596      -0.53571238       0.00000000
Si      -1.56807540      -1.77526791      -0.39851396       0.00000000
Si      -0.06524145       1.35814617       2.00661752       0.00000000
Si       1.54374533       2.79603189      -1.58653148       0.00000000
Si      -1.51386228      -2.59411734       1.95380907       0.00000000
Si      -2.19581055       2.34895284       1.80546220       0.00000000
Si      -1.93210803       3.17620791      -0.69427579       0.00000000
Si      -0.93543696       0.48369897      -3.72178763       0.00000000
Si       3.40334657       1.35304740      -1.31085757       0.00000000
