10
Lattice="16.28999089631971 0.0 0.0 0.0 16.28999089631971 0.0 0.0 0.0 34.51530692428229" Properties=species:S:1:pos:R:3:initial_magmoms:R:1 pbc="T T T"
Si       1.10532537       1.65149649       1.26471058       0.00000000
Si      -1.25532369       1.44171387      -1.42907257       0.00000000
Si       1.46069172      -1.27210239      -1.40028678       0.00000000
Si      -1.65771927      -1.12184343       1.61907944       0.00000000
Si       0.48943305      -1.90127106       2.77972631       0.00000000
Si       2.15410815       0.05434344       2.87164063       0.00000000
Si      -3.34914255       0.92349639       1.19177970       0.00000000
Si      -2.65789269      -2.68198560       0.07817721       0.00000000
Si      -0.69256935       3.50523333       1.23136878       0.00000000
Si      -2.58716151       2.77076610      -0.06761552       0.00000000
