10
Lattice="16.28999089631971 0.0 0.0 0.0 16.28999089631971 0.0 0.0 0.0 34.51530692428229" Properties=species:S:1:pos:R:3:initial_magmoms:R:1 pbc="T T T"
Si      -0.53985060      -2.12361327       0.79147095       0.00000000
Si      -1.48238837       1.18579797      -1.58611730       0.00000000
Si       1.22230386      -1.51120701      -1.59685157       0.00000000
Si       1.19320992       1.42278489       1.78744520       0.00000000
Si       2.52654642       2.57395032       0.03596497       0.00000000
Si      -2.83109765       2.51517600      -0.08052426       0.00000000
Si      -2.64390284      -2.76734520      -0.20878321       0.00000000
Si       2.44437966      -3.01164633      -0.25354959       0.00000000
Si      -0.12654072       2.54303190      -2.97101025       0.00000000
Si       2.58898599      -0.17151741      -2.97266699       0.00000000
