10
Lattice="16.28999089631971 0.0 0.0 0.0 16.28999089631971 0.0 0.0 0.0 34.51530692428229" Properties=species:S:1:pos:R:3:initial_magmoms:R:1 pbc="T T T"
Si       1.35855342      -1.35459495       1.35986934       0.00000000
Si      -1.35716877       1.35950270       1.35983482       0.00000000
Si      -1.35454608      -1.35599589      -1.37626757       0.00000000
Si       1.37430585       1.35011520      -1.37497670       0.00000000
Si      -2.71505430      -2.70881523       0.00144964       0.00000000
Si      -2.71194291       2.71731276      -0.00196737       0.00000000
Si       0.00100998      -2.71249677       2.71752969       0.00000000
Si      -2.71383255       0.00228060       2.71687390       0.00000000
Si       2.71865439      -2.71339272      -0.00217447       0.00000000
Si       2.71625976       0.00278559       2.71732260       0.00000000
