10
Lattice="16.28999089631971 0.0 0.0 0.0 16.28999089631971 0.0 0.0 0.0 34.51530692428229" Properties=species:S:1:pos:R:3:initial_magmoms:R:1 pbc="T T T"
Si       1.34177472       1.36814564       1.37929111       0.00000000
Si      -1.37430585      -1.35011520       1.37497670       0.00000000
Si      -1.32716259       1.46435112      -1.35020159       0.00000000
Si       1.36904418      -1.42270344      -1.51330722       0.00000000
Si      -0.34463124      -2.54508444      -2.63738787       0.00000000
Si       2.69727121       2.70580877       0.01835180       0.00000000
Si       2.70617430      -2.71678104      -0.01331946       0.00000000
Si       2.69886115       0.01014712       2.73484603       0.00000000
Si      -2.72885193      -2.70611109      -0.00129087       0.00000000
Si      -0.01575243      -2.70471015       2.73484603       0.00000000
