10
Lattice="16.28999089631971 0.0 0.0 0.0 16.28999089631971 0.0 0.0 0.0 34.51530692428229" Properties=species:S:1:pos:R:3:initial_magmoms:R:1 pbc="T T T"
Si       2.08568689       1.11609306       0.10837812       0.00000000
Si       0.40570734      -2.35494756       0.21975908       0.00000000
Si      -0.69028386       0.96932016       2.09677155       0.00000000
Si      -1.87323012       0.25959744      -1.87162808       0.00000000
Si       1.26498040       3.30708177      -0.25741530       0.00000000
Si      -3.39704559      -1.34956134      -0.72675471       0.00000000
Si       2.07679255      -2.51872722       1.89320016       0.00000000
Si      -0.39263135      -0.46662705       3.83099412       0.00000000
Si      -2.96751087       1.37916027       2.16276486       0.00000000
Si      -1.32994233      -3.37936050       1.49806870       0.00000000
