10
Lattice="16.28999089631971 0.0 0.0 0.0 16.28999089631971 0.0 0.0 0.0 34.51530692428229" Properties=species:S:1:pos:R:3:initial_magmoms:R:1 pbc="T T T"
Si      -1.12666527      -1.91630673       0.69938406       0.00000000
Si       2.31744051      -0.42660252       0.41149172       0.00000000
Si      -0.76390326       1.80591333       1.39918229       0.00000000
Si      -0.24197166      -0.43056099      -2.37751922       0.00000000
Si       0.75854385      -2.52918540      -2.39381045       0.00000000
Si       2.76863930      -2.08479420      -1.23840990       0.00000000
Si       0.54319005       3.63305186       0.72057647       0.00000000
Si      -3.45413160      -1.48985082       0.55393647       0.00000000
Si      -0.72366696      -2.24332848       3.00128019       0.00000000
Si      -0.73521657      -3.62913507      -0.98931280       0.00000000
