10
Lattice="16.28999089631971 0.0 0.0 0.0 16.28999089631971 0.0 0.0 0.0 34.51530692428229" Properties=species:S:1:pos:R:3:initial_magmoms:R:1 pbc="T T T"
Si       0.23594436       1.08074376       2.05347764       0.00000000
Si       1.24049979       1.85901480      -0.82681464       0.00000000
Si      -2.31826248       0.51680025      -0.39554564       0.00000000
Si       0.03303612      -2.42494569      -0.40279386       0.00000000
Si      -0.93157623      -0.56422044       3.25890746       0.00000000
Si       0.17907597       3.58476111       0.42636782       0.00000000
Si      -2.62891278      -1.62261432       1.88709095       0.00000000
Si      -2.29053690      -2.87399583      -0.59097142       0.00000000
Si      -3.05100297      -1.16326890      -1.93706914       0.00000000
Si       1.37311668      -2.66136246      -2.44220094       0.00000000
