10
Lattice="16.28999089631971 0.0 0.0 0.0 16.28999089631971 0.0 0.0 0.0 34.51530692428229" Properties=species:S:1:pos:R:3:initial_magmoms:R:1 pbc="T T T"
Si      -2.29723861       0.27150543       0.30628900       0.00000000
Si       0.95447997      -0.84178575       1.99833384       0.00000000
Si       0.17218530      -1.78059474      -1.63150495       0.00000000
Si       1.01051757       1.89467361      -1.13230979       0.00000000
Si      -2.59489111       1.70745264      -1.42793356       0.00000000
Si       3.25076724       1.45999125      -0.64074252       0.00000000
Si      -0.75324960      -2.38342248       2.64242434       0.00000000
Si       2.45964339      -1.85339475      -2.23704184       0.00000000
Si       3.08539116      -1.86882138       1.38679129       0.00000000
Si       3.74049351      -0.81824670      -0.60940260       0.00000000
