10
Lattice="16.28999089631971 0.0 0.0 0.0 16.28999089631971 0.0 0.0 0.0 34.51530692428229" Properties=species:S:1:pos:R:3:initial_magmoms:R:1 pbc="T T T"
Si       0.18222808      -0.70077951       2.18847877       0.00000000
Si      -1.31178387      -1.44192564      -1.37388256       0.00000000
Si      -1.41538827       1.92314853      -0.03731107       0.00000000
Si       2.23467034       0.70195239      -0.49384529       0.00000000
Si      -1.81042077      -1.91570400       2.15206510       0.00000000
Si       2.16328756       2.36939679       1.22463829       0.00000000
Si       1.59207871       1.54091997      -2.62416574       0.00000000
Si       0.30616241       3.42208917       0.33535091       0.00000000
Si      -1.99104429       1.77139089      -2.29692593       0.00000000
Si      -2.29695420      -3.01311243       0.05322263       0.00000000
