10
Lattice="16.28999089631971 0.0 0.0 0.0 16.28999089631971 0.0 0.0 0.0 34.51530692428229" Properties=species:S:1:pos:R:3:initial_magmoms:R:1 pbc="T T T"
Si       1.35614250       1.35741312       1.35786745       0.00000000
Si       1.35728280      -1.35734796      -1.35714263       0.00000000
Si      -1.35751738       1.35783666      -1.35738423       0.00000000
Si      -1.35773566      -1.35700587       1.35814357       0.00000000
Si       2.71371852      -0.00074934      -2.71349140       0.00000000
Si      -0.00092853      -2.71554300      -2.71314625       0.00000000
Si       2.71495656       2.71459818       0.00024161       0.00000000
Si       0.00009774       2.71503801      -2.71456138       0.00000000
Si       2.71479366      -2.71494027       0.00055225       0.00000000
Si      -2.71550222      -2.71471221       0.00013806       0.00000000
