10
Lattice="16.28999089631971 0.0 0.0 0.0 16.28999089631971 0.0 0.0 0.0 34.51530692428229" Properties=species:S:1:pos:R:3:initial_magmoms:R:1 pbc="T T T"
Si      -1.35433974       1.35079938      -1.36207832       0.00000000
Si       1.36196305      -1.36339155      -1.36038707       0.00000000
Si       1.35237150       1.36036161       1.37471093       0.00000000
Si      -1.34749794      -1.37560905       1.37871471       0.00000000
Si       2.63443685      -0.10208943       2.69319639       0.00000000
Si      -2.70812019       2.70607851      -0.00303735       0.00000000
Si       0.00412844       2.70892926      -2.71801291       0.00000000
Si       2.71901453       2.70897813       0.00082837       0.00000000
Si      -2.71074288      -0.00617391      -2.71832355       0.00000000
Si      -2.71030305      -2.72090241      -0.00079385       0.00000000
