10
Lattice="16.28999089631971 0.0 0.0 0.0 16.28999089631971 0.0 0.0 0.0 34.51530692428229" Properties=species:S:1:pos:R:3:initial_magmoms:R:1 pbc="T T T"
Si       1.64950911       1.36153449       0.94927502       0.00000000
Si       0.82070649      -2.19098871       0.36579343       0.00000000
Si      -1.85470121       0.74590281       1.31872707       0.00000000
Si       0.42257889       0.35966691      -2.44209739       0.00000000
Si      -1.26498040      -3.30708177       0.25741530       0.00000000
Si       0.48148353       3.40936668       0.87775926       0.00000000
Si       3.41928729       1.00825326      -0.55107170       0.00000000
Si       2.06021259       0.23682402       2.98378092       0.00000000
Si      -1.83973721       3.04706079       1.00760592       0.00000000
Si      -1.50166107      -0.15431517       3.44293831       0.00000000
