10
Lattice="16.28999089631971 0.0 0.0 0.0 16.28999089631971 0.0 0.0 0.0 34.51530692428229" Properties=species:S:1:pos:R:3:initial_magmoms:R:1 pbc="T T T"
Si       1.91637189       0.76160637       1.07932877       0.00000000
Si      -0.35304014       0.90021798      -2.12421124       0.00000000
Si      -1.66675112       0.99207729       1.40656857       0.00000000
Si      -0.45360319      -2.18344644      -1.08875145       0.00000000
Si      -2.77298873      -1.04752845       1.22581181       0.00000000
Si      -0.98749070      -2.22123924       2.32961194       0.00000000
Si      -2.73083021      -1.77360633      -1.02275815       0.00000000
Si      -2.53626245       0.06965604      -2.39529461       0.00000000
Si       3.56187366       0.39113919      -0.45915738       0.00000000
Si      -0.15595069      -3.61939365       0.64547112       0.00000000
