10
Lattice="16.28999089631971 0.0 0.0 0.0 16.28999089631971 0.0 0.0 0.0 34.51530692428229" Properties=species:S:1:pos:R:3:initial_magmoms:R:1 pbc="T T T"
Si      -1.85712516       1.05269238      -0.88928738       0.00000000
Si       1.62539991       1.65995100      -0.18503666       0.00000000
Si       0.17858727      -0.39594474       2.30472639       0.00000000
Si       0.07138278      -1.66744440      -1.71848358       0.00000000
Si       1.56613689       1.43040861      -2.49821931       0.00000000
Si      -0.73746459       1.30733766      -2.94325993       0.00000000
Si      -2.16328756      -2.36939679      -1.22463829       0.00000000
Si       3.46520880       0.47711781       0.65989852       0.00000000
Si      -1.80146386      -1.54344492       2.78535231       0.00000000
Si       3.08614050      -1.86955443       0.69907342       0.00000000
