10
Lattice="16.28999089631971 0.0 0.0 0.0 16.28999089631971 0.0 0.0 0.0 34.51530692428229" Properties=species:S:1:pos:R:3:initial_magmoms:R:1 pbc="T T T"
Si       1.25180505       1.88009406      -0.68409377       0.00000000
Si      -2.21984319       0.47627073      -0.82715979       0.00000000
Si       0.14809239      -2.21965911      -1.30405805       0.00000000
Si      -0.06374277       0.67860882       2.63949054       0.00000000
Si       1.88748972      -1.03387743       2.82635652       0.00000000
Si      -3.29612023      -1.57493349      -0.05577677       0.00000000
Si       3.54281436       1.36145304      -0.19086975       0.00000000
Si      -3.05960735       2.24738469       0.64112218       0.00000000
Si       0.97937109       2.08604853      -3.08598080       0.00000000
Si      -1.83195874      -3.36715929      -0.82343214       0.00000000
