10
Lattice="16.28999089631971 0.0 0.0 0.0 16.28999089631971 0.0 0.0 0.0 34.51530692428229" Properties=species:S:1:pos:R:3:initial_magmoms:R:1 pbc="T T T"
Si       1.22266224      -1.50083028       1.34323295       0.00000000
Si       1.36834371       1.33918461      -1.37619509       0.00000000
Si      -1.34910522      -1.37692854      -1.37809343       0.00000000
Si      -1.22192919       1.51145136       1.59633384       0.00000000
Si      -1.76182866      -0.61212933       2.38866767       0.00000000
Si      -2.70310070       2.69632080       0.01214939       0.00000000
Si       2.70990666       2.70335808       0.02074371       0.00000000
Si       0.00848709       2.69594613      -2.73416608       0.00000000
Si      -2.70577552      -0.01928736      -2.73616797       0.00000000
Si      -2.70019293      -2.74222439      -0.01170070       0.00000000
