10
Lattice="16.28999089631971 0.0 0.0 0.0 16.28999089631971 0.0 0.0 0.0 34.51530692428229" Properties=species:S:1:pos:R:3:initial_magmoms:R:1 pbc="T T T"
Si       1.43010887       1.68261921      -0.67411884       0.00000000
Si       0.45106358      -1.65835458      -1.65024678       0.00000000
Si      -2.31619106       0.42626043      -0.41038723       0.00000000
Si       0.55202900      -0.26433783       2.34258971       0.00000000
Si       1.02046424      -3.50124228      -0.39989457       0.00000000
Si      -0.76812889      -2.00410983       3.01746788       0.00000000
Si       3.63478118       0.73350612      -0.16563905       0.00000000
Si       0.65832125       3.61698992       0.59680451       0.00000000
Si      -3.44414324      -1.48975308       0.28765073       0.00000000
Si      -2.56036187      -0.00434943      -2.78876933       0.00000000
