10
Lattice="16.28999089631971 0.0 0.0 0.0 16.28999089631971 0.0 0.0 0.0 34.51530692428229" Properties=species:S:1:pos:R:3:initial_magmoms:R:1 pbc="T T T"
Si      -1.35694071      -1.35768344      -1.35652135       0.00000000
Si       1.35716877      -1.35688100       1.35731520       0.00000000
Si      -1.35718506       1.35748480       1.35676296       0.00000000
Si       1.35659862       1.35759883      -1.35804003       0.00000000
Si      -0.00022806      -2.71239970      -2.71369849       0.00000000
Si      -2.71373481       0.00093016       2.71345689       0.00000000
Si       2.71324611      -0.00010751       2.71449235       0.00000000
Si      -0.00076563       2.71502824       2.71421622       0.00000000
Si       2.71479366      -2.71487578      -0.00048321       0.00000000
Si      -2.71524978      -2.71456627      -0.00003452       0.00000000
