10
Lattice="16.28999089631971 0.0 0.0 0.0 16.28999089631971 0.0 0.0 0.0 34.51530692428229" Properties=species:S:1:pos:R:3:initial_magmoms:R:1 pbc="T T T"
Si      -1.35487188      -1.32952205      -1.38123432       0.00000000
Si      -1.49881032       1.25626199       1.34095494       0.00000000
Si       1.36374993       1.38172757      -1.37633315       0.00000000
Si       1.33806060      -1.44879743       1.55570930       0.00000000
Si       2.13688962       0.45526640       2.70389614       0.00000000
Si       0.23262120       2.08089437       2.77893246       0.00000000
Si       2.71495656      -2.68028885      -0.00148416       0.00000000
Si      -2.72285721      -2.69205023      -0.00334799       0.00000000
Si      -0.00013032      -2.69126831      -2.73734149       0.00000000
Si      -2.71103067       0.02499375      -2.73872210       0.00000000
