10
Lattice="16.28999089631971 0.0 0.0 0.0 16.28999089631971 0.0 0.0 0.0 34.51530692428229" Properties=species:S:1:pos:R:3:initial_magmoms:R:1 pbc="T T T"
Si      -1.73143152      -0.82463238      -1.43797752       0.00000000
Si       1.90426842      -1.62562797      -0.07503632       0.00000000
Si       1.01753856       1.91645334      -1.29922591       0.00000000
Si      -0.88104465      -1.15523793       2.32436561       0.00000000
Si       1.42482114      -1.91928943       2.27984084       0.00000000
Si      -0.23262120      -2.08089437      -2.77893246       0.00000000
Si       2.47826286       0.66140658      -2.77907052       0.00000000
Si       1.05396300       1.28370087       3.42423100       0.00000000
Si      -3.26836044      -1.99197867       0.05915927       0.00000000
Si       1.10543940      -3.52969181      -1.22322316       0.00000000
