10
Lattice="16.28999089631971 0.0 0.0 0.0 16.28999089631971 0.0 0.0 0.0 34.51530692428229" Properties=species:S:1:pos:R:3:initial_magmoms:R:1 pbc="T T T"
Si      -1.34156295      -1.36417347      -1.39693880       0.00000000
Si       1.37352393       1.35252612      -1.39359081       0.00000000
Si       1.26172566      -1.46310264       1.46124085       0.00000000
Si      -1.39606929       1.38487806       1.61742270       0.00000000
Si      -2.68543908       2.69161299      -0.02278012       0.00000000
Si      -2.70990666      -2.70335808      -0.02074371       0.00000000
Si       2.72375316       2.70861975      -0.00904302       0.00000000
Si       2.72244996      -2.71814940      -0.01860376       0.00000000
Si      -2.70141957      -0.00741195      -2.75490979       0.00000000
Si       0.01241298       2.70734913      -2.75656653       0.00000000
