10
Lattice="16.28999089631971 0.0 0.0 0.0 16.28999089631971 0.0 0.0 0.0 34.51530692428229" Properties=species:S:1:pos:R:3:initial_magmoms:R:1 pbc="T T T"
Si       1.24758594       1.39742136      -1.43863331       0.00000000
Si      -1.54971657      -1.29663513      -1.30906278       0.00000000
Si       1.16111862      -1.34082990       1.67599521       0.00000000
Si      -0.76546710       1.68847479       1.76514830       0.00000000
Si      -2.89054647      -2.45384415       0.43496214       0.00000000
Si       2.57010588       0.02710656      -2.93552849       0.00000000
Si       2.81289204       2.78725158       0.17340500       0.00000000
Si      -0.15364728      -2.68151319      -2.92648548       0.00000000
Si      -0.52854534      -1.71807372       3.57468331       0.00000000
Si       3.43751580      -0.61524072       1.97803883       0.00000000
