10
Lattice="16.28999089631971 0.0 0.0 0.0 16.28999089631971 0.0 0.0 0.0 34.51530692428229" Properties=species:S:1:pos:R:3:initial_magmoms:R:1 pbc="T T T"
Si       2.27265048      -0.50256279      -0.10420177       0.00000000
Si      -1.54264671      -1.38478032      -1.11467246       0.00000000
Si      -0.06700077       2.11572891      -1.12847859       0.00000000
Si      -1.05016743       1.24467003       1.77388068       0.00000000
Si       0.01066995       3.15055116       0.98002817       0.00000000
Si      -3.18712221      -1.01445975       0.42364111       0.00000000
Si       2.00321388       2.37159594       1.99129272       0.00000000
Si       3.36753396       1.50327378       0.35095184       0.00000000
Si      -1.94287572      -0.25866891      -3.15725495       0.00000000
Si      -3.35352456       1.12156650       1.32880554       0.00000000
