10
Lattice="16.28999089631971 0.0 0.0 0.0 16.28999089631971 0.0 0.0 0.0 34.51530692428229" Properties=species:S:1:pos:R:3:initial_magmoms:R:1 pbc="T T T"
Si       1.35830907       1.35688283      -1.35648684       0.00000000
Si      -1.35702216      -1.35762489      -1.35755681       0.00000000
Si      -1.35754344       1.35798360       1.35721166       0.00000000
Si       1.35780408      -1.35801585       1.35717714       0.00000000
Si       2.71241532      -0.00076563       2.71487201       0.00000000
Si       2.71502172       0.00216657      -2.71366398       0.00000000
Si       0.00151497       2.71549643       2.71349140       0.00000000
Si      -2.71463402      -2.71482624      -0.00037967       0.00000000
Si      -2.71478063       2.71468193       0.00024161       0.00000000
Si       2.71524978       2.71456627       0.00003452       0.00000000
