10
Lattice="16.28999089631971 0.0 0.0 0.0 16.28999089631971 0.0 0.0 0.0 34.51530692428229" Properties=species:S:1:pos:R:3:initial_magmoms:R:1 pbc="T T T"
Si      -1.43010887      -1.68261921       0.67411884       0.00000000
Si      -0.25879923       0.24769271      -2.38770124       0.00000000
Si      -0.77178762       1.93437071       1.27092334       0.00000000
Si       2.20467231      -0.94911309       0.50847979       0.00000000
Si      -0.97904529      -3.34097379      -0.97612794       0.00000000
Si       0.93597453       3.47599115       0.62686735       0.00000000
Si      -0.87807987      -1.94695704       3.01670854       0.00000000
Si       3.72874842       0.33097859      -0.68992686       0.00000000
Si       1.36594908      -1.10805462      -3.46937704       0.00000000
Si       3.06696717       2.44895552       0.01518674       0.00000000
