10
Lattice="16.28999089631971 0.0 0.0 0.0 16.28999089631971 0.0 0.0 0.0 34.51530692428229" Properties=species:S:1:pos:R:3:initial_magmoms:R:1 pbc="T T T"
Si      -0.58806900      -2.10701376       0.89518950       0.00000000
Si      -1.62474831       1.35574732       1.08167581       0.00000000
Si       1.89579762       1.39080340       0.42526333       0.00000000
Si       0.14889060      -0.64679445      -2.31418359       0.00000000
Si       1.51093008      -3.08164446       1.28631718       0.00000000
Si       2.42745435      -1.47580884      -2.33268381       0.00000000
Si       1.07574273       3.57255080      -0.13895870       0.00000000
Si      -3.74740861       0.63738357       0.16308492       0.00000000
Si      -1.54246752      -3.40959474      -0.80727896       0.00000000
Si      -1.21226922       3.64530194       0.46637109       0.00000000
