10
Lattice="16.28999089631971 0.0 0.0 0.0 16.28999089631971 0.0 0.0 0.0 34.51530692428229" Properties=species:S:1:pos:R:3:initial_magmoms:R:1 pbc="T T T"
Si      -1.25252181      -1.88035470       0.68388667       0.00000000
Si       2.29076496      -0.51872247       0.49294789       0.00000000
Si      -0.27274347       0.20577528      -2.40202510       0.00000000
Si      -0.75569310       2.08984410       1.24862644       0.00000000
Si       0.67846221       3.54216343       0.05042689       0.00000000
Si       0.34282305      -2.04405291      -3.10996895       0.00000000
Si      -3.47191376      -1.40424687      -0.14247927       0.00000000
Si      -1.31561298      -1.20190878       3.32334270       0.00000000
Si      -3.07373892       2.25122913       0.57008964       0.00000000
Si       3.64493637       1.21990923      -0.35688847       0.00000000
