10
Lattice="16.28999089631971 0.0 0.0 0.0 16.28999089631971 0.0 0.0 0.0 34.51530692428229" Properties=species:S:1:pos:R:3:initial_magmoms:R:1 pbc="T T T"
Si      -0.50002155       1.00497897      -2.23828439       0.00000000
Si       1.75609458       0.67468293       1.70319329       0.00000000
Si       1.27167885      -2.11412597      -0.69727862       0.00000000
Si      -2.35335114      -0.46004589       0.93919654       0.00000000
Si       1.89434781      -1.52989164       2.57291048       0.00000000
Si      -0.38719701       3.73756131       0.83233709       0.00000000
Si      -1.36096434      -0.78359787      -3.61275371       0.00000000
Si       3.28025214       2.28333672       0.55897571       0.00000000
Si      -2.29042287      -1.18868130       3.20067523       0.00000000
Si       0.79959465       1.74511512       3.66732244       0.00000000
