10
Lattice="16.28999089631971 0.0 0.0 0.0 16.28999089631971 0.0 0.0 0.0 34.51530692428229" Properties=species:S:1:pos:R:3:initial_magmoms:R:1 pbc="T T T"
Si       1.39914810       1.62030277       1.01695957       0.00000000
Si       0.00120546      -1.90207483       1.44170518       0.00000000
Si       0.47944728       0.29366146      -2.35487716       0.00000000
Si      -2.30586579       0.76405150       0.04452477       0.00000000
Si      -1.42482114       1.91928943      -2.27984084       0.00000000
Si      -0.37085814       3.20299030       1.14439016       0.00000000
Si      -0.00441459      -0.94015943       3.54182471       0.00000000
Si       1.46207637       0.89166736       3.27843826       0.00000000
Si      -0.31938174      -1.61040238      -3.50306400       0.00000000
Si      -2.59721244       2.54075293       1.64755458       0.00000000
