10
Lattice="16.28999089631971 0.0 0.0 0.0 16.28999089631971 0.0 0.0 0.0 34.51530692428229" Properties=species:S:1:pos:R:3:initial_magmoms:R:1 pbc="T T T"
Si       1.42151427      -1.55386011      -0.87800087       0.00000000
Si      -0.29434401      -0.07445118       2.29129993       0.00000000
Si       0.45851463       1.98803290      -1.10852873       0.00000000
Si      -2.21829075      -0.77997108       0.00942268       0.00000000
Si      -1.78730622       2.33468410      -1.87811696       0.00000000
Si      -2.75299371      -0.04175669       2.21101728       0.00000000
Si       0.03152115      -3.45526149      -0.90588925       0.00000000
Si      -1.26827424      -1.60561344      -3.02364612       0.00000000
Si      -3.25379718       0.50285731      -1.61473051       0.00000000
Si       1.14530103      -1.45965504      -3.21109886       0.00000000
