10
Lattice="16.28999089631971 0.0 0.0 0.0 16.28999089631971 0.0 0.0 0.0 34.51530692428229" Properties=species:S:1:pos:R:3:initial_magmoms:R:1 pbc="T T T"
Si       0.13018968       2.29239396       0.54893175       0.00000000
Si      -1.17719685      -0.40259106       2.10298431       0.00000000
Si       2.40316596      -0.45944316       0.15759698       0.00000000
Si      -1.12673043       0.26674875      -2.30945499       0.00000000
Si       1.43006652       2.75978664      -1.24855741       0.00000000
Si       1.93767921       1.83301596       2.13884573       0.00000000
Si       2.10093759      -2.36453260      -1.34923862       0.00000000
Si      -2.67167403      -2.28664359       0.83830824       0.00000000
Si       0.75315186       0.33645366       3.52722615       0.00000000
Si       0.01848915       2.16609759      -3.08504889       0.00000000
