10
Lattice="16.28999089631971 0.0 0.0 0.0 16.28999089631971 0.0 0.0 0.0 34.51530692428229" Properties=species:S:1:pos:R:3:initial_magmoms:R:1 pbc="T T T"
Si       1.34969166       1.35765747       1.36645831       0.00000000
Si      -1.36210464      -1.35850455       1.36421482       0.00000000
Si      -1.47536901       1.26734571      -1.37373414       0.00000000
Si       1.42651530      -1.17828828      -1.51631696       0.00000000
Si      -0.31521150      -2.52760527      -2.66660544       0.00000000
Si       2.71521720      -2.70669753      -0.02328404       0.00000000
Si       2.71322982       2.70909216      -0.02570356       0.00000000
Si      -2.72373687       2.70353727       0.01140386       0.00000000
Si       2.70817992      -0.00154755       2.72788084       0.00000000
Si      -0.00511506       2.71635750       2.72681087       0.00000000
