10
Lattice="16.28999089631971 0.0 0.0 0.0 16.28999089631971 0.0 0.0 0.0 34.51530692428229" Properties=species:S:1:pos:R:3:initial_magmoms:R:1 pbc="T T T"
Si      -1.35586557      -1.34275212       1.35581379       0.00000000
Si      -1.24308990       1.32672276      -1.48831122       0.00000000
Si       1.24836786      -1.43619156      -1.38513801       0.00000000
Si       1.35852084       1.37283975       1.35740149       0.00000000
Si       2.23831116       0.18318105      -2.82293747       0.00000000
Si       0.68294196       2.07995607      -2.99285642       0.00000000
Si      -2.69047269       2.72117934      -0.02590720       0.00000000
Si       0.00159642      -2.70264132       2.71582119       0.00000000
Si      -2.71391400      -2.71318095      -0.01929062       0.00000000
Si       2.72373687      -2.70353727      -0.01140386       0.00000000
