10
Lattice="16.28999089631971 0.0 0.0 0.0 16.28999089631971 0.0 0.0 0.0 34.51530692428229" Properties=species:S:1:pos:R:3:initial_magmoms:R:1 pbc="T T T"
Si       1.35656604      -1.35891180      -1.36311378       0.00000000
Si      -1.36111095       1.35482301      -1.36297572       0.00000000
Si       1.35022923       1.35609363       1.38454780       0.00000000
Si      -1.37352393      -1.35252612       1.39359081       0.00000000
Si       2.71063971      -2.71624347      -0.00445248       0.00000000
Si      -2.71477737       2.71489140      -0.00138061       0.00000000
Si       2.71528236       2.71464705      -0.00610921       0.00000000
Si      -2.71508688      -2.71669959      -0.00334799       0.00000000
Si       2.71313208      -0.00117288      -2.71966964       0.00000000
Si      -0.00175932       2.71422351      -2.71977319       0.00000000
