10
Lattice="16.28999089631971 0.0 0.0 0.0 16.28999089631971 0.0 0.0 0.0 34.51530692428229" Properties=species:S:1:pos:R:3:initial_magmoms:R:1 pbc="T T T"
Si      -0.52750278       0.80682741       2.10698809       0.00000000
Si      -1.31380479      -1.88488332      -0.52870577       0.00000000
Si      -0.70480314       1.58819355      -1.60206338       0.00000000
Si       2.16564147      -0.95767281       0.23201202       0.00000000
Si       1.29406131       1.35615879      -2.78290172       0.00000000
Si       0.02710656      -1.03842234       3.36324242       0.00000000
Si       1.85932431      -2.11766742       2.32025829       0.00000000
Si       0.18775854      -3.58006959      -1.02986830       0.00000000
Si      -2.80958517       0.80141913      -2.33240768       0.00000000
Si      -2.80015326       1.30939020       2.21118986       0.00000000
