10
Lattice="16.28999089631971 0.0 0.0 0.0 16.28999089631971 0.0 0.0 0.0 34.51530692428229" Properties=species:S:1:pos:R:3:initial_magmoms:R:1 pbc="T T T"
Si       0.34487559      -1.71476685      -1.49164885       0.00000000
Si      -1.99886445       0.23203476       1.18083834       0.00000000
Si       1.92438657       0.89293635       1.03073119       0.00000000
Si      -1.29406131      -1.35615879       2.78290172       0.00000000
Si      -1.93152159      -2.44035603      -1.79369247       0.00000000
Si      -0.27974817       1.68772545      -3.29628268       0.00000000
Si       1.78802298      -3.26197476      -0.44576544       0.00000000
Si       2.59796178      -0.72549144       2.64639361       0.00000000
Si       0.87158016      -2.31383160       3.01491374       0.00000000
Si      -2.32415946       2.59247205      -1.87186969       0.00000000
