10
Lattice="16.28999089631971 0.0 0.0 0.0 16.28999089631971 0.0 0.0 0.0 34.51530692428229" Properties=species:S:1:pos:R:3:initial_magmoms:R:1 pbc="T T T"
Si      -1.36432008       0.86832216       1.64034088       0.00000000
Si      -1.09488348      -2.00583657      -0.45515361       0.00000000
Si       2.15146917      -0.17396091       0.93218993       0.00000000
Si       0.16760781       1.27532781      -1.98193906       0.00000000
Si      -0.72396018      -0.81482580       3.18013861       0.00000000
Si       2.43030510       0.85532274      -2.45024301       0.00000000
Si       3.43396458      -0.61994853      -0.94427029       0.00000000
Si      -3.36753396      -1.50327378      -0.35095184       0.00000000
Si      -0.41822946       2.76208353       2.51064483       0.00000000
Si       2.77754274       2.05646589       1.52191879       0.00000000
