10
Lattice="16.28999089631971 0.0 0.0 0.0 16.28999089631971 0.0 0.0 0.0 34.51530692428229" Properties=species:S:1:pos:R:3:initial_magmoms:R:1 pbc="T T T"
Si       1.63936044      -1.08745524      -1.29249542       0.00000000
Si      -1.92643911      -0.74293803      -1.13790127       0.00000000
Si       0.39614022       2.19918258      -0.77283267       0.00000000
Si      -0.53656002      -0.46776735       2.26520634       0.00000000
Si      -1.15768143      -2.95357248      -1.44498413       0.00000000
Si       0.94899024      -0.10207314      -3.38584996       0.00000000
Si      -1.62070839       2.83397130      -1.80739506       0.00000000
Si       1.13094954      -3.32433288      -1.28176115       0.00000000
Si      -2.56679901       0.94020993      -2.67769901       0.00000000
Si      -2.90243817      -0.60567849       2.42808417       0.00000000
