10
Lattice="16.28999089631971 0.0 0.0 0.0 16.28999089631971 0.0 0.0 0.0 34.51530692428229" Properties=species:S:1:pos:R:3:initial_magmoms:R:1 pbc="T T T"
Si       0.50841090       2.23687764      -0.01073427       0.00000000
Si       0.71351829      -1.35451350      -1.73781216       0.00000000
Si      -2.28863097       0.37076040      -0.16322298       0.00000000
Si       0.37222650      -1.27314495       1.93044220       0.00000000
Si      -2.99141415      -0.85190184       1.69045713       0.00000000
Si      -2.87370261      -0.45486567      -2.23517801       0.00000000
Si      -0.09260865      -3.45701493       1.23268036       0.00000000
Si       2.65971717       2.40215598       0.90226514       0.00000000
Si       1.17452529      -3.42839340      -0.74390883       0.00000000
Si      -1.13094954       3.32433288       1.28176115       0.00000000
