10
Lattice="16.28999089631971 0.0 0.0 0.0 16.28999089631971 0.0 0.0 0.0 34.51530692428229" Properties=species:S:1:pos:R:3:initial_magmoms:R:1 pbc="T T T"
Si       1.35666378       1.35721402      -1.35703908       0.00000000
Si       1.35742941      -1.35777150       1.35769487       0.00000000
Si      -1.35762489       1.35799478       1.35779842       0.00000000
Si      -1.36011726      -1.35858600      -1.35627974       0.00000000
Si      -0.00125433      -2.71103067      -2.71545877       0.00000000
Si      -2.71502172       0.00247608      -2.71321528       0.00000000
Si       2.71485882      -2.71471221       0.00062128       0.00000000
Si      -2.71479366       2.71487578       0.00048321       0.00000000
Si      -0.00154755       2.71476827       2.71497556       0.00000000
Si      -2.71477737      -2.71510317       0.00037967       0.00000000
