10
Lattice="16.28999089631971 0.0 0.0 0.0 16.28999089631971 0.0 0.0 0.0 34.51530692428229" Properties=species:S:1:pos:R:3:initial_magmoms:R:1 pbc="T T T"
Si       1.00365948      -1.47527127       1.50597271       0.00000000
Si      -2.26269729       0.42000507       0.46830395       0.00000000
Si       0.22076208      -1.41889158      -1.86406922       0.00000000
Si       1.38999312       1.90140138       0.02788838       0.00000000
Si      -1.29979539       1.84964805      -2.11775687       0.00000000
Si       0.89433729      -3.03731937      -0.24840680       0.00000000
Si       1.11377988       1.99560645      -2.30520961       0.00000000
Si      -0.27883593      -1.02928365       3.38243294       0.00000000
Si      -2.43030510      -0.85532274       2.45024301       0.00000000
Si      -0.03152115       3.45526149       0.90588925       0.00000000
