10
Lattice="16.28999089631971 0.0 0.0 0.0 16.28999089631971 0.0 0.0 0.0 34.51530692428229" Properties=species:S:1:pos:R:3:initial_magmoms:R:1 pbc="T T T"
Si      -0.85652820      -1.55874123      -1.50687011       0.00000000
Si      -1.21313259      -0.38830473       1.98818634       0.00000000
Si       2.25828270      -0.62397216       0.34977832       0.00000000
Si      -0.38594268       2.14083573      -0.98655157       0.00000000
Si       3.44140911       1.33850436      -0.33490221       0.00000000
Si      -2.78850591       2.24833670      -1.11902139       0.00000000
Si      -0.72861912       1.35040909       3.45070425       0.00000000
Si      -3.51126063      -0.45113526       1.43701109       0.00000000
Si       2.50238835      -1.20389616       2.64111276       0.00000000
Si       0.69079374       2.21767892      -3.07604039       0.00000000
