10
Lattice="16.28999089631971 0.0 0.0 0.0 16.28999089631971 0.0 0.0 0.0 34.51530692428229" Properties=species:S:1:pos:R:3:initial_magmoms:R:1 pbc="T T T"
Si       1.66603110       0.99618237      -1.26056046       0.00000000
Si       1.27109417      -1.35601218       1.41211864       0.00000000
Si      -1.51726689      -0.97041159      -1.52999680       0.00000000
Si      -1.43510013       1.38655593       1.37808998       0.00000000
Si       3.26553317      -0.79141707      -1.46869758       0.00000000
Si       2.59458716      -2.73667928       0.02706002       0.00000000
Si       2.61662427       2.73199590       0.04313725       0.00000000
Si      -2.75335209      -2.59688338       0.04305787       0.00000000
Si       2.63199715       0.02388114       2.76852264       0.00000000
Si      -0.08436591      -2.69333647       2.77311318       0.00000000
