10
Lattice="16.28999089631971 0.0 0.0 0.0 16.28999089631971 0.0 0.0 0.0 34.51530692428229" Properties=species:S:1:pos:R:3:initial_magmoms:R:1 pbc="T T T"
Si      -1.67415588      -1.13959368      -1.28769779       0.00000000
Si      -1.79434350       0.42204458       1.73549963       0.00000000
Si       1.22646011       1.79432395      -1.31779515       0.00000000
Si       1.78369214      -1.97942463       0.21830944       0.00000000
Si       2.39236147       0.30908483      -2.71773679       0.00000000
Si      -0.32632128      -2.40092838      -2.72809138       0.00000000
Si      -0.87969258      -0.84973038       3.59666957       0.00000000
Si      -2.46760920      -3.06233496      -0.07192994       0.00000000
Si       3.57250193      -1.16909487      -1.22940140       0.00000000
Si       0.96734907      -3.68953254      -1.22988462       0.00000000
