10
Lattice="16.28999089631971 0.0 0.0 0.0 16.28999089631971 0.0 0.0 0.0 34.51530692428229" Properties=species:S:1:pos:R:3:initial_magmoms:R:1 pbc="T T T"
Si       0.87099276      -2.14767604       0.09156916       0.00000000
Si      -1.92987630      -0.17510121      -1.35600362       0.00000000
Si      -0.54739287       1.08621720       2.04662078       0.00000000
Si       1.73540532       1.02433149      -1.27862026       0.00000000
Si       0.69082699      -2.50509968      -2.28239498       0.00000000
Si       2.99365307      -1.42931229       1.01016005       0.00000000
Si       3.40613216       0.86024232       0.39485533       0.00000000
Si      -2.88482868       1.45940481       1.46089570       0.00000000
Si      -2.06812953       2.02947336      -2.22572081       0.00000000
Si      -0.73801845      -3.36397364       1.28321080       0.00000000
