10
Lattice="16.28999089631971 0.0 0.0 0.0 16.28999089631971 0.0 0.0 0.0 34.51530692428229" Properties=species:S:1:pos:R:3:initial_magmoms:R:1 pbc="T T T"
Si       1.38691431       1.65850119       0.92594266       0.00000000
Si      -1.90777077       1.12497111      -0.82553757       0.00000000
Si       0.13980078      -1.64050074       1.72248735       0.00000000
Si       0.95649993      -1.07043219      -1.96412915       0.00000000
Si      -0.84419667      -3.28044762       0.30294102       0.00000000
Si       1.09475316      -3.27500676      -1.09441196       0.00000000
Si       1.06051158       2.46327606      -2.48082359       0.00000000
Si      -1.18679166       1.99244619      -2.83498535       0.00000000
Si      -2.10323448       2.94058935       0.62569383       0.00000000
Si       1.58135175       3.50036262      -0.44573092       0.00000000
