10
Lattice="16.28999089631971 0.0 0.0 0.0 16.28999089631971 0.0 0.0 0.0 34.51530692428229" Properties=species:S:1:pos:R:3:initial_magmoms:R:1 pbc="T T T"
Si       0.13825323      -2.20457457       0.86971719       0.00000000
Si      -0.95649993       1.07043219       1.96412915       0.00000000
Si       1.52415756       1.60865379      -1.14421758       0.00000000
Si      -1.75609458      -0.67468293      -1.70319329       0.00000000
Si       0.10401165       3.53370825      -0.51669443       0.00000000
Si      -1.80069660      -2.21001543       2.26707017       0.00000000
Si       2.06812953      -2.02947336       2.22572081       0.00000000
Si      -0.48441573      -2.78880890      -2.40047191       0.00000000
Si       3.39681591       1.34920296       0.72744502       0.00000000
Si      -2.86427070       2.19540330       1.13859158       0.00000000
