10
Lattice="16.28999089631971 0.0 0.0 0.0 16.28999089631971 0.0 0.0 0.0 34.51530692428229" Properties=species:S:1:pos:R:3:initial_magmoms:R:1 pbc="T T T"
Si      -1.35666378      -1.33793028      -1.35983482       0.00000000
Si      -1.34796492       1.34185617       1.37226034       0.00000000
Si       1.35729909       1.37573937      -1.35624523       0.00000000
Si       1.25301051      -1.43283582       1.42565555       0.00000000
Si       0.57445056       2.06788518       2.65322764       0.00000000
Si       2.36281563       0.21540267       2.68998646       0.00000000
Si      -0.00195480      -2.69599500      -2.71656326       0.00000000
Si      -2.72171691      -2.69648370       0.03082219       0.00000000
Si       2.72002275      -2.70892926       0.02281463       0.00000000
Si       2.71241532       0.01783755      -2.71732260       0.00000000
