10
Lattice="16.28999089631971 0.0 0.0 0.0 16.28999089631971 0.0 0.0 0.0 34.51530692428229" Properties=species:S:1:pos:R:3:initial_magmoms:R:1 pbc="T T T"
Si      -1.28249541       0.44598762       1.87646022       0.00000000
Si       2.06267238       0.53615277       0.92200791       0.00000000
Si      -1.00365948       1.47527127      -1.50597271       0.00000000
Si      -0.10932219      -1.56204810      -1.75437952       0.00000000
Si       2.71793763      -1.66693941       1.34385423       0.00000000
Si      -0.78289740       0.05637969      -3.37004194       0.00000000
Si      -3.43396458       0.61994853       0.94427029       0.00000000
Si      -0.65642184       2.67641442       2.46618909       0.00000000
Si       0.38633364       3.37667265      -1.47808433       0.00000000
Si       1.67036031       2.24973045       2.60966930       0.00000000
