10
Lattice="16.28999089631971 0.0 0.0 0.0 16.28999089631971 0.0 0.0 0.0 34.51530692428229" Properties=species:S:1:pos:R:3:initial_magmoms:R:1 pbc="T T T"
Si      -2.32352415      -0.44942481      -0.18793595       0.00000000
Si       1.34003169      -0.23661225      -2.03868226       0.00000000
Si      -0.03316644       2.42492940       0.40296643       0.00000000
Si       0.53238978      -1.70197920       1.80639411       0.00000000
Si       3.29070708       0.36137736      -0.64350374       0.00000000
Si       0.83580732      -3.40465887       0.15935726       0.00000000
Si      -2.66216067       0.80220105       2.28974674       0.00000000
Si       1.09923291      -2.57755041      -2.33965590       0.00000000
Si      -3.08423457       1.26205146      -1.53417173       0.00000000
Si      -2.35147779       2.94192513       0.00721370       0.00000000
