10
Lattice="16.28999089631971 0.0 0.0 0.0 16.28999089631971 0.0 0.0 0.0 34.51530692428229" Properties=species:S:1:pos:R:3:initial_magmoms:R:1 pbc="T T T"
Si      -1.35707103       1.35712331       1.35721166       0.00000000
Si       1.35689767       1.35748134      -1.35745326       0.00000000
Si       1.35715994      -1.35754344       1.35752230       0.00000000
Si      -1.35770634      -1.35736425      -1.35745326       0.00000000
Si       0.00060273       2.71268803       2.71328431       0.00000000
Si      -0.00017919       2.71548828      -2.71297367       0.00000000
Si      -2.71425609      -0.00166158       2.71449235       0.00000000
Si       2.71426491       0.00009774       2.71483750       0.00000000
Si       2.71507452       2.71448645       0.00024161       0.00000000
Si      -0.00127062      -2.71629234       2.71349140       0.00000000
