10
Lattice="16.28999089631971 0.0 0.0 0.0 16.28999089631971 0.0 0.0 0.0 34.51530692428229" Properties=species:S:1:pos:R:3:initial_magmoms:R:1 pbc="T T T"
Si      -0.97257816       0.05255154       2.17608777       0.00000000
Si       0.79345332       1.92274128      -1.21576785       0.00000000
Si      -1.92241548      -0.72602901      -1.28096730       0.00000000
Si       1.78836507      -1.85248251       0.03675882       0.00000000
Si      -0.57445056      -2.06788518      -2.65322764       0.00000000
Si       2.14128792       0.66140658      -2.65616144       0.00000000
Si       3.43495827      -0.62719758      -1.15795468       0.00000000
Si      -3.05338131      -2.00422386       0.48652804       0.00000000
Si       0.67855995      -3.50072100      -1.22757209       0.00000000
Si       0.62338572      -1.44596556       3.47186215       0.00000000
