10
Lattice="16.28999089631971 0.0 0.0 0.0 16.28999089631971 0.0 0.0 0.0 34.51530692428229" Properties=species:S:1:pos:R:3:initial_magmoms:R:1 pbc="T T T"
Si       0.57961449      -2.06145063      -0.90053938       0.00000000
Si       1.54414539       1.59711951      -0.70380202       0.00000000
Si       0.27621324      -0.09420507       2.33309799       0.00000000
Si      -2.41357527      -0.14595840       0.18745274       0.00000000
Si      -1.01634939      -0.56293353      -2.19631375       0.00000000
Si      -1.11377988      -1.99560645       2.30520961       0.00000000
Si      -0.89301780      -3.41449803       0.44114038       0.00000000
Si      -1.14530103       1.45965504       3.21109886       0.00000000
Si       1.25216343       3.45312881       0.70521715       0.00000000
Si       0.62949447       2.86889447      -2.56497195       0.00000000
