10
Lattice="16.28999089631971 0.0 0.0 0.0 16.28999089631971 0.0 0.0 0.0 34.51530692428229" Properties=species:S:1:pos:R:3:initial_magmoms:R:1 pbc="T T T"
Si      -0.81684576       2.19102129      -0.36651825       0.00000000
Si      -2.08674737      -1.11650031      -0.10779136       0.00000000
Si       0.82893294       0.04020372       2.28470750       0.00000000
Si       1.60106265      -0.50042880      -1.88222428       0.00000000
Si      -2.77652462      -0.14701725       1.98904922       0.00000000
Si       3.25392750       1.04155002      -1.15533151       0.00000000
Si       0.83802276       3.55371237       0.57650949       0.00000000
Si       1.23825177       2.42760096       2.61909198       0.00000000
Si      -0.38338515       2.55837708      -2.80975465       0.00000000
Si      -1.68002843      -3.47084514       0.11186417       0.00000000
