10
Lattice="16.28999089631971 0.0 0.0 0.0 16.28999089631971 0.0 0.0 0.0 34.51530692428229" Properties=species:S:1:pos:R:3:initial_magmoms:R:1 pbc="T T T"
Si       0.18219225      -0.70077951       2.18851329       0.00000000
Si      -1.31186858      -1.44197451      -1.37370998       0.00000000
Si      -1.41537524       1.92319740      -0.03720752       0.00000000
Si       2.23461822       0.70191981      -0.49370723       0.00000000
Si      -1.81037516      -1.91563884       2.15209962       0.00000000
Si       1.59228723       1.54070820      -2.62368252       0.00000000
Si       2.16338205       2.36946195       1.22470732       0.00000000
Si       0.30615100       3.42200772       0.33541994       0.00000000
Si      -1.99114529       1.77155379      -2.29678787       0.00000000
Si      -2.29692488      -3.01304727       0.05325715       0.00000000
