10
Lattice="16.28999089631971 0.0 0.0 0.0 16.28999089631971 0.0 0.0 0.0 34.51530692428229" Properties=species:S:1:pos:R:3:initial_magmoms:R:1 pbc="T T T"
Si      -1.85723104       1.05254577      -0.88928738       0.00000000
Si       1.62533475       1.65991842      -0.18507118       0.00000000
Si       0.17847324      -0.39570039       2.30510606       0.00000000
Si       0.07123617      -1.66754214      -1.71841455       0.00000000
Si       1.56585996       1.43037603      -2.49815028       0.00000000
Si      -0.73749717       1.30727250      -2.94322541       0.00000000
Si      -2.16338205      -2.36946195      -1.22470732       0.00000000
Si       3.46511106       0.47705265       0.65996755       0.00000000
Si      -1.80168540      -1.54323315       2.78559392       0.00000000
Si       3.08617308      -1.86947298       0.69914245       0.00000000
