10
Lattice="16.28999089631971 0.0 0.0 0.0 16.28999089631971 0.0 0.0 0.0 34.433804113860816" Properties=species:S:1:pos:R:3:initial_magmoms:R:1 pbc="T T T"
Si      -1.56756456      -1.08991503       1.44281994       0.00000000
Si      -0.63644445       1.31007505      -1.95890578       0.00000000
Si       1.19166400       1.57367006       1.55226784       0.00000000
Si       1.17600931      -2.02258269      -1.28500142       0.00000000
Si       1.49318050       2.30717618      -2.31023408       0.00000000
Si      -3.04430193      -2.20810950      -0.11442360       0.00000000
Si      -0.12959347      -2.36203371       3.02120442       0.00000000
Si       1.93467859      -0.83046420      -3.34373085       0.00000000
Si       2.59602001       0.32954670       3.02787769       0.00000000
Si       2.88896308      -2.80570815       0.30925017       0.00000000
