10
Lattice="16.28999089631971 0.0 0.0 0.0 16.28999089631971 0.0 0.0 0.0 34.433804113860816" Properties=species:S:1:pos:R:3:initial_magmoms:R:1 pbc="T T T"
Si       0.96265755       1.70041536       1.31939534       0.00000000
Si      -1.64922078      -0.96884775       1.41759027       0.00000000
Si      -1.71295377       0.78312546      -1.59425159       0.00000000
Si       1.88563266      -1.78800669       0.01273735       0.00000000
Si      -0.28497726      -2.27739087       2.75717963       0.00000000
Si      -2.45112209      -2.68301187       0.02103394       0.00000000
Si       1.31864292       3.41981901      -0.31716995       0.00000000
Si       2.43095670       0.44403282       2.72852036       0.00000000
Si      -2.72346483      -1.48232484      -2.23799192       0.00000000
Si       1.07087202      -3.53261682       1.37839081       0.00000000
