10
Lattice="16.28999089631971 0.0 0.0 0.0 16.28999089631971 0.0 0.0 0.0 34.433804113860816" Properties=species:S:1:pos:R:3:initial_magmoms:R:1 pbc="T T T"
Si       1.71295377      -0.78312546       1.59425159       0.00000000
Si       0.75866928       1.19211849      -2.05872943       0.00000000
Si      -1.01051105      -2.26545030      -0.64374033       0.00000000
Si      -1.17600931       2.02258269       1.28500142       0.00000000
Si       0.06373300      -1.75197321       3.01184186       0.00000000
Si       2.21571204       2.74448448      -1.00130115       0.00000000
Si      -1.82626768      -1.65338613      -2.93500137       0.00000000
Si      -1.81245376       3.33265774      -0.67390436       0.00000000
Si      -0.73816832      -3.46613733       1.61528553       0.00000000
Si      -2.74357387       0.93266766       2.72782136       0.00000000
