10
Lattice="16.28999089631971 0.0 0.0 0.0 16.28999089631971 0.0 0.0 0.0 34.433804113860816" Properties=species:S:1:pos:R:3:initial_magmoms:R:1 pbc="T T T"
Si       1.35338949      -1.35069892      -1.35538415       0.00000000
Si      -1.35850455      -1.35565108       1.35720915       0.00000000
Si      -1.35527913       1.35531184      -1.36202988       0.00000000
Si       1.35725022       1.35920026       1.35631387       0.00000000
Si      -0.00475668      -2.70078154      -2.71500023       0.00000000
Si       2.70208746       0.01459055      -2.72077134       0.00000000
Si       2.71412577      -2.71259179      -0.00037877       0.00000000
Si      -0.00074934      -2.71337371       2.71462490       0.00000000
Si       2.71432125       0.00214259       2.71465933       0.00000000
Si      -2.71524978       0.00252971       2.71441830       0.00000000
