10
Lattice="16.28999089631971 0.0 0.0 0.0 16.28999089631971 0.0 0.0 0.0 34.433804113860816" Properties=species:S:1:pos:R:3:initial_magmoms:R:1 pbc="T T T"
Si      -1.02436407       0.91311966       2.04915683       0.00000000
Si       0.87234579       2.16889947      -0.79221897       0.00000000
Si       1.42203555      -1.95105330       0.60916877       0.00000000
Si      -1.22535009      -0.82199340      -2.01634139       0.00000000
Si       1.32442587      -0.87114033      -3.00204402       0.00000000
Si       3.10889763      -0.11293857      -1.45648186       0.00000000
Si       2.66893731       2.50510878       0.77538083       0.00000000
Si      -0.82342692       3.24648297       1.91496822       0.00000000
Si      -0.88047450       3.78739242      -0.35463395       0.00000000
Si      -1.74439836      -3.22398974      -1.55275883       0.00000000
