10
Lattice="16.28999089631971 0.0 0.0 0.0 16.28999089631971 0.0 0.0 0.0 34.433804113860816" Properties=species:S:1:pos:R:3:initial_magmoms:R:1 pbc="T T T"
Si      -1.69942167      -1.56520251      -0.31324449       0.00000000
Si       0.71244315       0.96659647      -2.00404852       0.00000000
Si       1.63486440      -0.24333187       1.67279514       0.00000000
Si      -1.31212692       1.82750668       0.78846569       0.00000000
Si      -2.84719878      -0.65034518      -2.15944836       0.00000000
Si      -2.47130703       0.75692625       2.55364677       0.00000000
Si      -1.30992777       0.80830491      -3.29690085       0.00000000
Si       2.31539544       1.95277678       2.04757287       0.00000000
Si       0.33630705       3.27767506       1.72124353       0.00000000
Si      -2.92472289      -1.47671523       1.79128192       0.00000000
