10
Lattice="16.28999089631971 0.0 0.0 0.0 16.28999089631971 0.0 0.0 0.0 34.433804113860816" Properties=species:S:1:pos:R:3:initial_magmoms:R:1 pbc="T T T"
Si      -0.68053104      -2.19610866      -0.37477773       0.00000000
Si       1.10196963      -0.02808396       2.09120053       0.00000000
Si      -1.97908839       1.32489828      -0.32632934       0.00000000
Si       1.98301428       0.83940741      -1.17532969       0.00000000
Si       1.30841280       2.31689412       1.92144178       0.00000000
Si       1.95574482       3.02451543      -0.26854939       0.00000000
Si       2.99110464      -1.40560383       1.53082448       0.00000000
Si      -2.31539544      -1.95277678      -2.04757287       0.00000000
Si       1.14614811      -3.56934167      -0.72187067       0.00000000
Si      -1.50144930       2.84382675      -2.05890160       0.00000000
