10
Lattice="16.28999089631971 0.0 0.0 0.0 16.28999089631971 0.0 0.0 0.0 34.433804113860816" Properties=species:S:1:pos:R:3:initial_magmoms:R:1 pbc="T T T"
Si       0.15622110       2.10916567       0.97471824       0.00000000
Si      -1.40541975      -0.88722996       1.63302407       0.00000000
Si      -1.55292570       0.28714383      -1.72058929       0.00000000
Si       1.57029084      -1.64110903      -0.64136439       0.00000000
Si       2.75001264      -1.28759974       1.60799068       0.00000000
Si       2.55324573      -0.71311430      -2.60144092       0.00000000
Si      -2.00634156      -1.94649766      -2.48295413       0.00000000
Si      -3.30396061       0.69804442       1.60909257       0.00000000
Si      -0.39374559       1.35772426      -3.48577037       0.00000000
Si      -3.52648364       1.17309340      -0.72882631       0.00000000
