10
Lattice="16.28999089631971 0.0 0.0 0.0 16.28999089631971 0.0 0.0 0.0 34.433804113860816" Properties=species:S:1:pos:R:3:initial_magmoms:R:1 pbc="T T T"
Si      -0.04639392      -0.80239653       2.23905936       0.00000000
Si       0.72176103       2.27094003       0.33848448       0.00000000
Si       1.80921627      -1.73604159      -0.25498246       0.00000000
Si      -1.74627171      -0.85957443      -1.63433256       0.00000000
Si       1.33169121       2.37767211      -1.87908817       0.00000000
Si       0.17780535      -3.17422053       1.49187983       0.00000000
Si      -2.33245107      -1.01797839       2.70611974       0.00000000
Si       2.21060187       0.45913365      -3.05111222       0.00000000
Si      -0.50919282      -2.27137986      -3.06106359       0.00000000
Si       3.24198693      -1.48978566       1.80553753       0.00000000
