10
Lattice="16.28999089631971 0.0 0.0 0.0 16.28999089631971 0.0 0.0 0.0 34.433804113860816" Properties=species:S:1:pos:R:3:initial_magmoms:R:1 pbc="T T T"
Si      -2.14902567       0.70242480      -0.47690845       0.00000000
Si       1.14925950      -1.28519955      -1.55658098       0.00000000
Si      -0.50518548      -1.10175786       2.04626439       0.00000000
Si       1.16434404       2.07668178       0.43166241       0.00000000
Si      -0.86411934       1.00180242       3.14098450       0.00000000
Si      -2.61562014       1.73185506       1.60561475       0.00000000
Si       3.38859693      -0.70576425      -1.25807417       0.00000000
Si       1.11623967       2.17484532       2.80604670       0.00000000
Si       1.24807464      -2.70946683       2.35930227       0.00000000
Si      -2.21361552       1.96325451      -2.41129735       0.00000000
