10
Lattice="16.28999089631971 0.0 0.0 0.0 16.28999089631971 0.0 0.0 0.0 34.433804113860816" Properties=species:S:1:pos:R:3:initial_magmoms:R:1 pbc="T T T"
Si      -1.17095778      -1.54142496       1.37136582       0.00000000
Si       1.59454665       1.18895823       1.36324633       0.00000000
Si       0.82427400      -0.89692740      -2.22155025       0.00000000
Si      -1.19964447       2.19383946      -0.44669326       0.00000000
Si       1.86274521       1.14642504      -2.89177019       0.00000000
Si      -2.41362414      -0.11069055       2.72337202       0.00000000
Si      -0.18639018       2.57251680      -2.62573447       0.00000000
Si      -2.95894818      -2.34273006       0.00758900       0.00000000
Si       0.29322000       2.60468154       2.71760091       0.00000000
Si       0.30685473      -2.84988663       2.70082131       0.00000000
