10
Lattice="16.28999089631971 0.0 0.0 0.0 16.28999089631971 0.0 0.0 0.0 34.433804113860816" Properties=species:S:1:pos:R:3:initial_magmoms:R:1 pbc="T T T"
Si      -1.06583841       1.63846516      -1.34932380       0.00000000
Si       1.66850325      -1.07149104      -1.32663191       0.00000000
Si       1.15693209       1.89704285       1.30211503       0.00000000
Si      -1.92435399      -1.83997179      -0.17110167       0.00000000
Si      -0.26068887      -1.71038484       2.66669302       0.00000000
Si      -2.42577648       0.30361302      -2.71886026       0.00000000
Si       0.30402027      -2.43033768      -2.71607112       0.00000000
Si      -2.53428417      -1.94670387       2.04647099       0.00000000
Si      -2.37667842       2.96239256       0.10357694       0.00000000
Si       3.20684940      -2.35861281       0.16497245       0.00000000
