10
Lattice="16.28999089631971 0.0 0.0 0.0 16.28999089631971 0.0 0.0 0.0 34.433804113860816" Properties=species:S:1:pos:R:3:initial_magmoms:R:1 pbc="T T T"
Si       1.61147196       1.18317528       1.23412958       0.00000000
Si      -1.14771195      -1.66408933       1.22992865       0.00000000
Si       1.19270493      -1.10697133      -1.82227998       0.00000000
Si      -1.50164478       1.94806246      -0.15337586       0.00000000
Si      -2.44903860      -0.24836602       2.58428324       0.00000000
Si      -0.87951339      -1.70662252      -3.02508786       0.00000000
Si       0.26741664       2.47802503       2.60335613       0.00000000
Si      -3.52398312       1.21236696       1.00266886       0.00000000
Si      -2.32635861       2.01046945      -2.39460456       0.00000000
Si       2.46891240       3.06189121      -0.19820870       0.00000000
