10
Lattice="16.28999089631971 0.0 0.0 0.0 16.28999089631971 0.0 0.0 0.0 34.433804113860816" Properties=species:S:1:pos:R:3:initial_magmoms:R:1 pbc="T T T"
Si       1.35715248       1.35603303       1.35875867       0.00000000
Si       1.35725022      -1.35702804      -1.35800113       0.00000000
Si      -1.35707103       1.35705767      -1.35834546       0.00000000
Si      -1.35866745      -1.35764706       1.36037706       0.00000000
Si       0.00079821       2.71541398      -2.71328198       0.00000000
Si      -2.71432125      -0.00214259      -2.71465933       0.00000000
Si       2.71523349       0.00100892      -2.71414282       0.00000000
Si       2.71487511       2.71469722      -0.00017217       0.00000000
Si      -0.00019548      -2.71473438      -2.71503810       0.00000000
Si      -2.71580364       2.71433884      -0.00041321       0.00000000
