10
Lattice="16.28999089631971 0.0 0.0 0.0 16.28999089631971 0.0 0.0 0.0 34.433804113860816" Properties=species:S:1:pos:R:3:initial_magmoms:R:1 pbc="T T T"
Si      -1.45986093       1.27846526       1.30707350       0.00000000
Si      -1.35876519      -1.33348052      -1.36361384       0.00000000
Si       1.35687555       1.37855102      -1.36058366       0.00000000
Si       1.39698153      -1.19380369       1.58908651       0.00000000
Si       0.28443969       1.99144598       2.71135368       0.00000000
Si       2.34316989       0.74571710       2.75181343       0.00000000
Si       2.70573642      -2.68740758       0.02975082       0.00000000
Si      -2.70518256      -2.70027668       0.02348387       0.00000000
Si      -0.00444717      -2.69297876      -2.72099516       0.00000000
Si       2.70954828       0.02109229      -2.72102959       0.00000000
