10
Lattice="16.28999089631971 0.0 0.0 0.0 16.28999089631971 0.0 0.0 0.0 34.433804113860816" Properties=species:S:1:pos:R:3:initial_magmoms:R:1 pbc="T T T"
Si       0.55126989      -2.26653358      -0.37433009       0.00000000
Si       0.41954895      -0.05620050       2.34745704       0.00000000
Si       1.57666023       1.80840177      -0.28387244       0.00000000
Si      -2.37299688       0.38281500      -0.28917525       0.00000000
Si       1.16509338       0.86754024      -2.35155466       0.00000000
Si      -1.35148356      -2.93668952      -1.58003042       0.00000000
Si       0.12797424       3.68080695      -0.07179452       0.00000000
Si      -3.16641762      -1.88178822      -0.52883466       0.00000000
Si       1.33802802      -1.13959953      -3.44909835       0.00000000
Si       2.39919120      -2.45630231      -1.81572994       0.00000000
