10
Lattice="16.28999089631971 0.0 0.0 0.0 16.28999089631971 0.0 0.0 0.0 34.433804113860816" Properties=species:S:1:pos:R:3:initial_magmoms:R:1 pbc="T T T"
Si      -1.35210258       1.35747828      -1.35727802       0.00000000
Si      -1.35581670      -1.35783666       1.35827660       0.00000000
Si       1.35677781      -1.35822762      -1.35868980       0.00000000
Si       1.35866745       1.35786924       1.35806999       0.00000000
Si      -0.00965997      -2.69042382      -2.70073429       0.00000000
Si      -2.71308321      -2.71384884       0.00234150       0.00000000
Si      -2.71373481       2.71433754       0.00065424       0.00000000
Si      -2.71362078       0.00008145       2.71558905       0.00000000
Si       2.71554300      -2.71391400       0.00117075       0.00000000
Si       0.00099369      -2.71456560       2.71545131       0.00000000
