10
Lattice="16.28999089631971 0.0 0.0 0.0 16.28999089631971 0.0 0.0 0.0 34.433804113860816" Properties=species:S:1:pos:R:3:initial_magmoms:R:1 pbc="T T T"
Si       2.00119392      -0.93543696       1.22315827       0.00000000
Si      -0.86806152       2.09849409      -1.16403540       0.00000000
Si       2.03554953      -1.38706092      -1.14585434       0.00000000
Si      -1.78613334      -1.81078011       0.99310590       0.00000000
Si      -0.00166158      -1.05257835       2.53866806       0.00000000
Si      -0.46084410       2.15365203       2.00893812       0.00000000
Si       0.29124891      -2.10004164      -2.55013452       0.00000000
Si      -2.35488240       0.67546485      -2.35875133       0.00000000
Si       2.76325641       1.87911666       0.76787426       0.00000000
Si      -3.18932136      -1.17128358      -1.00767141       0.00000000
