10
Lattice="16.28999089631971 0.0 0.0 0.0 16.28999089631971 0.0 0.0 0.0 34.433804113860816" Properties=species:S:1:pos:R:3:initial_magmoms:R:1 pbc="T T T"
Si       1.77736932       0.92439234      -1.19399282       0.00000000
Si       1.79659152       0.33620931       1.56759981       0.00000000
Si      -1.75282029       1.61849295       0.43758503       0.00000000
Si      -0.87234579      -2.16889947       0.79221897       0.00000000
Si       2.23655184      -2.28183804      -0.66426289       0.00000000
Si      -1.69577271       1.07758350       2.70718719       0.00000000
Si       0.54356472       1.65701880       3.00569401       0.00000000
Si      -1.89670986      -1.25577981       2.84137580       0.00000000
Si       0.45208008      -3.04003980      -2.20982505       0.00000000
Si      -2.09769588      -2.99089287      -1.22412242       0.00000000
