10
Lattice="16.28999089631971 0.0 0.0 0.0 16.28999089631971 0.0 0.0 0.0 34.433804113860816" Properties=species:S:1:pos:R:3:initial_magmoms:R:1 pbc="T T T"
Si      -0.41156685      -0.94086153      -2.06768222       0.00000000
Si      -1.44868599       1.87240518       0.21207792       0.00000000
Si       1.96698492       1.35309627       0.25584331       0.00000000
Si      -1.57666023      -1.80840177       0.28387244       0.00000000
Si       0.49611195       3.18850686       0.51537103       0.00000000
Si      -1.15711128      -1.86460227       2.63132948       0.00000000
Si       2.65163733       1.20168072      -1.93500870       0.00000000
Si      -1.24802577       0.82271016      -3.30771307       0.00000000
Si      -1.18438074       0.32050575       3.53810978       0.00000000
Si      -2.50105257       2.14351965      -1.86961887       0.00000000
