10
Lattice="16.28999089631971 0.0 0.0 0.0 16.28999089631971 0.0 0.0 0.0 34.433804113860816" Properties=species:S:1:pos:R:3:initial_magmoms:R:1 pbc="T T T"
Si      -1.80511119      -0.61204788      -1.43148290       0.00000000
Si       2.07502020      -1.11267216      -0.52797381       0.00000000
Si       0.53344863       2.18554785      -1.00646622       0.00000000
Si       0.20230551      -0.48304737       2.79533778       0.00000000
Si       2.35471950       2.35180359       0.74280644       0.00000000
Si       3.39584598       0.11003895       1.09055362       0.00000000
Si      -1.49467266       3.37277934      -0.51161775       0.00000000
Si       0.71293185       1.57235967      -3.33660305       0.00000000
Si      -2.01155436      -2.95702596      -1.26172416       0.00000000
Si      -1.15777917       0.09557343      -3.62147407       0.00000000
