10
Lattice="16.28999089631971 0.0 0.0 0.0 16.28999089631971 0.0 0.0 0.0 34.433804113860816" Properties=species:S:1:pos:R:3:initial_magmoms:R:1 pbc="T T T"
Si      -1.35702216       1.35687555      -1.35738132       0.00000000
Si       1.35721764       1.35638685       1.35806999       0.00000000
Si      -1.35770634      -1.35834165       1.35727802       0.00000000
Si       1.35788553      -1.35780408      -1.35765679       0.00000000
Si      -0.00311139      -2.71285515       2.71348858       0.00000000
Si      -2.71397916       2.71480995      -0.00013774       0.00000000
Si      -2.71300176       0.00014661       2.71600225       0.00000000
Si      -2.71451673      -0.00133578      -2.71507254       0.00000000
Si       0.00001629       2.71485882      -2.71486593       0.00000000
Si      -2.71440270      -2.71559187      -0.00013774       0.00000000
