10
Lattice="16.28999089631971 0.0 0.0 0.0 16.28999089631971 0.0 0.0 0.0 34.433804113860816" Properties=species:S:1:pos:R:3:initial_magmoms:R:1 pbc="T T T"
Si       1.35893711      -1.35347079      -1.35803556       0.00000000
Si      -1.35780876      -1.35641928       1.35710585       0.00000000
Si       1.35770721       1.35786354       1.35669264       0.00000000
Si      -1.35688023       1.35892891      -1.36075583       0.00000000
Si       2.70184561      -0.01044174      -2.72516853       0.00000000
Si      -2.71386981      -2.71492383      -0.00096415       0.00000000
Si       0.00002538      -2.71453287       2.71452160       0.00000000
Si       2.71525228       0.00164747       2.71414282       0.00000000
Si       2.71354183      -2.71666686       0.00092971       0.00000000
Si      -2.71549881       0.00092961       2.71472820       0.00000000
