10
Lattice="16.28999089631971 0.0 0.0 0.0 16.28999089631971 0.0 0.0 0.0 34.433804113860816" Properties=species:S:1:pos:R:3:initial_magmoms:R:1 pbc="T T T"
Si       0.15664464       1.74575043      -1.52617592       0.00000000
Si      -1.83821247      -1.42781850      -0.07145018       0.00000000
Si      -0.12843036       0.80894511       2.18496383       0.00000000
Si       2.00422386      -1.04894568      -0.63265264       0.00000000
Si       2.26971828       2.50844823      -0.80857504       0.00000000
Si      -3.30369345       0.10805157      -1.17223065       0.00000000
Si      -0.05155785      -1.31836599       3.28123346       0.00000000
Si      -2.08743318      -1.98029385       2.24925178       0.00000000
Si       2.13970779       1.43042490       2.73294369       0.00000000
Si       3.69499554       0.57542796      -0.39468048       0.00000000
