10
Lattice="16.28999089631971 0.0 0.0 0.0 16.28999089631971 0.0 0.0 0.0 34.433804113860816" Properties=species:S:1:pos:R:3:initial_magmoms:R:1 pbc="T T T"
Si      -1.35826020      -1.35490446       1.35497095       0.00000000
Si       1.35767376      -1.35694071      -1.35686481       0.00000000
Si       1.35738054       1.35656604       1.35779452       0.00000000
Si      -1.35767376       1.35889551      -1.35748462       0.00000000
Si      -2.70783783      -0.00957852       2.71283434       0.00000000
Si       2.70989037       0.00185706       2.71376405       0.00000000
Si      -0.00024435      -2.71427238      -2.71424613       0.00000000
Si      -2.71423980      -2.71432125       0.00048207       0.00000000
Si      -2.71511946       0.00118917      -2.71452160       0.00000000
Si       2.71539639      -2.71456560       0.00079198       0.00000000
