10
Lattice="16.28999089631971 0.0 0.0 0.0 16.28999089631971 0.0 0.0 0.0 34.433804113860816" Properties=species:S:1:pos:R:3:initial_magmoms:R:1 pbc="T T T"
Si      -1.35707266       1.35734796      -1.35762235       0.00000000
Si       1.35829278       1.35769005       1.35648604       0.00000000
Si       1.35801585      -1.35785295      -1.35762235       0.00000000
Si      -1.35981589      -1.35742941       1.35724358       0.00000000
Si      -2.71313113       0.00055386       2.71097491       0.00000000
Si       2.71269225      -0.00143352       2.71531357       0.00000000
Si      -0.00001629       2.71489140      -2.71441830       0.00000000
Si      -2.71442223       2.71505430      -0.00089528       0.00000000
Si      -2.71469995      -2.71518462      -0.00010330       0.00000000
Si       2.71448415      -2.71546155      -0.00082641       0.00000000
