10
Lattice="16.28999089631971 0.0 0.0 0.0 16.28999089631971 0.0 0.0 0.0 34.433804113860816" Properties=species:S:1:pos:R:3:initial_magmoms:R:1 pbc="T T T"
Si      -2.00285550      -0.11714139       1.31550979       0.00000000
Si       0.03435561      -0.45162396      -2.36901261       0.00000000
Si      -2.00119392       0.93543696      -1.22315827       0.00000000
Si       0.76206249       2.81455362      -0.45528401       0.00000000
Si       1.65517803       0.48176046       2.45530377       0.00000000
Si       2.92988682      -1.92130776      -0.09283359       0.00000000
Si       1.33680627      -2.99185398       1.25129071       0.00000000
Si       1.36832742       2.71621089       1.82464830       0.00000000
Si       2.09308581      -1.69735284      -2.32855287       0.00000000
Si      -3.78732726      -0.87534315      -0.23005237       0.00000000
