10
Lattice="16.28999089631971 0.0 0.0 0.0 16.28999089631971 0.0 0.0 0.0 34.433804113860816" Properties=species:S:1:pos:R:3:initial_magmoms:R:1 pbc="T T T"
Si      -1.10201850      -1.86043040      -0.99072997       0.00000000
Si      -0.73391337       0.67958622       2.18327657       0.00000000
Si      -0.45916623       1.92402819      -1.38726988       0.00000000
Si       1.97491815      -1.67429272      -0.02513669       0.00000000
Si       0.86165955       3.14673930       0.23125756       0.00000000
Si       0.87900840      -2.71872674      -2.12656406       0.00000000
Si       1.16957313       1.43138601       3.44146235       0.00000000
Si      -2.33188092       2.55365298       1.93604172       0.00000000
Si       0.77660946       1.88105517      -3.41442349       0.00000000
Si      -2.65660578      -1.29784548      -2.68139626       0.00000000
