10
Lattice="16.28999089631971 0.0 0.0 0.0 16.28999089631971 0.0 0.0 0.0 34.433804113860816" Properties=species:S:1:pos:R:3:initial_magmoms:R:1 pbc="T T T"
Si       1.32080949       1.27467621      -1.46010572       0.00000000
Si      -1.90348650      -0.75179979      -1.25818578       0.00000000
Si       1.32892111      -1.36619343       1.49559180       0.00000000
Si      -1.36808307       1.37008674       1.49711722       0.00000000
Si      -0.30791358       1.71535329      -3.21020479       0.00000000
Si       2.64093710       2.68198560       0.05506657       0.00000000
Si      -2.76092694      -2.63051572       0.17415251       0.00000000
Si       2.63345347      -2.84208372       0.04457458       0.00000000
Si      -1.16957313      -1.43138601      -3.44146235       0.00000000
Si      -2.69246007       2.84094342      -0.01081222       0.00000000
