10
Lattice="16.28999089631971 0.0 0.0 0.0 16.28999089631971 0.0 0.0 0.0 34.433804113860816" Properties=species:S:1:pos:R:3:initial_magmoms:R:1 pbc="T T T"
Si       1.35676965      -1.35632169       1.35411010       0.00000000
Si       1.35547855       1.35817875      -1.35776009       0.00000000
Si      -1.35979146      -1.35710361      -1.35748462       0.00000000
Si      -1.35827649       1.35804843       1.35910301       0.00000000
Si       0.00174303      -2.70176166       2.71187019       0.00000000
Si       2.71008489      -2.71430496       0.00037877       0.00000000
Si      -2.71085148      -0.00764001       2.71496924       0.00000000
Si      -0.00750969       2.71339272       2.71366075       0.00000000
Si       2.71282813       0.00047241      -2.71448716       0.00000000
Si       2.71245509       2.71526607      -0.00017217       0.00000000
