10
Lattice="16.28999089631971 0.0 0.0 0.0 16.28999089631971 0.0 0.0 0.0 34.433804113860816" Properties=species:S:1:pos:R:3:initial_magmoms:R:1 pbc="T T T"
Si      -1.25113716       1.46945574      -1.33313991       0.00000000
Si       1.46586772      -1.26757377      -1.32170788       0.00000000
Si       1.74494312       1.06220574       1.16723774       0.00000000
Si      -1.41773499      -1.42557048       1.43805976       0.00000000
Si       0.68391677       2.20260348       2.85786960       0.00000000
Si      -2.60190396       0.11411145      -2.68769765       0.00000000
Si       0.11314218      -2.60025867      -2.69269055       0.00000000
Si      -2.49372207       2.87513613       0.08897700       0.00000000
Si       2.88188738      -2.53615752       0.18649359       0.00000000
Si      -2.74276359      -2.76094323       0.03605221       0.00000000
