10
Lattice="16.28999089631971 0.0 0.0 0.0 16.28999089631971 0.0 0.0 0.0 34.433804113860816" Properties=species:S:1:pos:R:3:initial_magmoms:R:1 pbc="T T T"
Si      -1.35272554      -1.33268490      -1.37098268       0.00000000
Si      -1.46586772       1.26757377       1.32170788       0.00000000
Si       1.36019382       1.38341196      -1.36485346       0.00000000
Si       1.41601965      -1.26858375       1.50820146       0.00000000
Si       0.27907539       2.32977951       2.48894562       0.00000000
Si       2.16246003       0.76437567       2.67158262       0.00000000
Si      -2.70775216      -2.67812487      -0.01322259       0.00000000
Si       2.73373404      -2.67748956       0.01942068       0.00000000
Si       0.00058970      -2.69066817      -2.72471401       0.00000000
Si      -2.70949519       0.02363679      -2.72509278       0.00000000
