10
Lattice="16.28999089631971 0.0 0.0 0.0 16.28999089631971 0.0 0.0 0.0 34.433804113860816" Properties=species:S:1:pos:R:3:initial_magmoms:R:1 pbc="T T T"
Si       0.58078737       2.24352396      -0.39492152       0.00000000
Si       1.19858562      -0.92224206      -1.81197665       0.00000000
Si      -2.24841096      -0.69328611      -0.34423493       0.00000000
Si       0.93066399      -0.37291068       2.18747750       0.00000000
Si       2.99220977       2.10994596      -0.38466024       0.00000000
Si       3.11076839       0.44256672      -1.96444962       0.00000000
Si      -2.65165362      -2.38462794       1.22952853       0.00000000
Si      -0.92248641      -0.08162919       3.68620966       0.00000000
Si      -0.55614060       2.94889725      -2.40200022       0.00000000
Si      -3.95337123       0.75261429       0.29768040       0.00000000
