10
Lattice="16.28999089631971 0.0 0.0 0.0 16.28999089631971 0.0 0.0 0.0 34.433804113860816" Properties=species:S:1:pos:R:3:initial_magmoms:R:1 pbc="T T T"
Si       2.00249127      -0.26489169      -1.29023536       0.00000000
Si      -1.18105758       1.86626385      -1.00395255       0.00000000
Si      -1.68210540      -1.69174908      -0.45342459       0.00000000
Si       0.81575663      -0.61206417       2.29126104       0.00000000
Si       2.70642779      -2.36232693      -0.51175548       0.00000000
Si       1.10823869       0.10410939      -3.45787898       0.00000000
Si       1.78703973      -2.82880737       1.59084264       0.00000000
Si      -2.24340993      -1.32638067      -2.76059405       0.00000000
Si      -0.18060723       2.07273960      -3.21212478       0.00000000
Si       1.82626768       1.65338613       2.93500137       0.00000000
