10
Lattice="16.28999089631971 0.0 0.0 0.0 16.28999089631971 0.0 0.0 0.0 34.433804113860816" Properties=species:S:1:pos:R:3:initial_magmoms:R:1 pbc="T T T"
Si       0.80190131       1.71416412       1.39655633       0.00000000
Si      -1.89530145      -0.89226846       1.21753489       0.00000000
Si       1.69037909      -1.76186124       0.24865800       0.00000000
Si      -0.27234274       1.20068703      -2.25902586       0.00000000
Si       0.69894037      -1.01605617      -2.95944426       0.00000000
Si       2.16614483       0.40562100       2.73614569       0.00000000
Si      -0.56064546      -2.32313319       2.68628896       0.00000000
Si       2.45112209       2.68301187      -0.02103394       0.00000000
Si       2.69848574      -2.02965255      -1.81031870       0.00000000
Si       3.52199411      -0.84960495       1.35735687       0.00000000
