10
Lattice="16.28999089631971 0.0 0.0 0.0 16.28999089631971 0.0 0.0 0.0 34.433804113860816" Properties=species:S:1:pos:R:3:initial_magmoms:R:1 pbc="T T T"
Si      -1.35547855      -1.35817875       1.35776009       0.00000000
Si       1.35697653       1.35708732       1.35758792       0.00000000
Si       1.35734957      -1.35770634      -1.35672707       0.00000000
Si      -1.35803608       1.35739683      -1.35676151       0.00000000
Si       0.00129110      -2.71450044       2.71187019       0.00000000
Si       2.71440594      -0.00016290      -2.71352302       0.00000000
Si      -0.00162894      -2.71371852      -2.71462490       0.00000000
Si      -2.71414600      -0.00249237      -2.71472820       0.00000000
Si       2.71473174       2.71466334       0.00051651       0.00000000
Si       2.71442223      -2.71505430       0.00089528       0.00000000
