10
Lattice="16.28999089631971 0.0 0.0 0.0 16.28999089631971 0.0 0.0 0.0 34.433804113860816" Properties=species:S:1:pos:R:3:initial_magmoms:R:1 pbc="T T T"
Si      -1.35723393       1.35549090      -1.36041149       0.00000000
Si       1.35850455      -1.35896067      -1.36061810       0.00000000
Si       1.36832742       1.35935163       1.35779452       0.00000000
Si      -1.36019382      -1.38341196       1.36485346       0.00000000
Si      -2.70892016       2.71072116       0.00082641       0.00000000
Si       2.71127502       2.71272483      -0.00117075       0.00000000
Si      -2.71291936      -2.71609686      -0.00612922       0.00000000
Si       0.00052128       2.71306692      -2.71748291       0.00000000
Si       2.71290402      -2.71808424      -0.00179056       0.00000000
Si       2.71502172      -0.00131949      -2.71703527       0.00000000
