10
Lattice="16.28999089631971 0.0 0.0 0.0 16.28999089631971 0.0 0.0 0.0 34.433804113860816" Properties=species:S:1:pos:R:3:initial_magmoms:R:1 pbc="T T T"
Si       1.36933577      -1.41252219      -1.29436398       0.00000000
Si      -1.33410606      -1.37241621       1.37418502       0.00000000
Si       1.38270497       1.34855136       1.37380625       0.00000000
Si      -1.43797110       1.27211868      -1.57838448       0.00000000
Si      -2.68389546       2.70391194      -0.01341886       0.00000000
Si      -2.68511721      -2.70861975      -0.00508243       0.00000000
Si       2.72561348       2.69158041       0.00667327       0.00000000
Si      -2.69010195      -0.01290168       2.73087766       0.00000000
Si       0.12959347       2.36203371      -3.02120442       0.00000000
Si       0.02376787       2.70202215       2.73184181       0.00000000
