10
Lattice="16.28999089631971 0.0 0.0 0.0 16.28999089631971 0.0 0.0 0.0 34.433804113860816" Properties=species:S:1:pos:R:3:initial_magmoms:R:1 pbc="T T T"
Si       1.35589815      -1.35233064      -1.35786339       0.00000000
Si      -1.34305186      -1.35803214       1.36881335       0.00000000
Si      -1.35893461       1.36526490      -1.35765679       0.00000000
Si       1.35086454       1.37982816       1.35979168       0.00000000
Si       2.70858717      -2.71036278       0.00013774       0.00000000
Si      -2.71160801      -2.71236645       0.00213490       0.00000000
Si      -0.00216657      -2.71002069      -2.71617442       0.00000000
Si       2.71274112       0.00493587      -2.71624329       0.00000000
Si      -2.71698623       0.00465894      -2.71607112       0.00000000
Si       2.70510111       2.72890080      -0.00668016       0.00000000
