10
Lattice="16.28999089631971 0.0 0.0 0.0 16.28999089631971 0.0 0.0 0.0 34.433804113860816" Properties=species:S:1:pos:R:3:initial_magmoms:R:1 pbc="T T T"
Si      -1.45723824       0.64071828       1.72792369       0.00000000
Si       0.99751815       2.18783401       0.24114006       0.00000000
Si       0.96422139      -2.15645391       0.71770418       0.00000000
Si      -1.22681619       1.54334718      -2.23248250       0.00000000
Si      -2.42202978      -2.11704840      -1.05618866       0.00000000
Si      -0.74818341       3.40998311      -0.81370568       0.00000000
Si      -3.07066826       0.01435149      -1.85364158       0.00000000
Si       2.14425270       2.41380726      -1.82234123       0.00000000
Si      -2.34440141      -1.28671452       2.71469377       0.00000000
Si       2.52444501      -2.75320548      -0.93997451       0.00000000
