10
Lattice="16.28999089631971 0.0 0.0 0.0 16.28999089631971 0.0 0.0 0.0 34.433804113860816" Properties=species:S:1:pos:R:3:initial_magmoms:R:1 pbc="T T T"
Si       0.19618699      -0.83704536       2.19109305       0.00000000
Si       1.21016781      -1.54842966      -1.30152966       0.00000000
Si      -0.64863848       2.13139989      -0.79745292       0.00000000
Si      -2.03275484      -1.31080743       0.15942860       0.00000000
Si       2.42202978       2.11704840       1.05618866       0.00000000
Si       2.12437890      -2.04020847       1.84685812       0.00000000
Si      -0.47704613      -2.07441747      -2.88207658       0.00000000
Si      -1.71599579      -2.20185414       2.34356602       0.00000000
Si       1.46347731      -3.47356557       0.08742748       0.00000000
Si       3.38625117      -0.03940551       1.77389284       0.00000000
