10
Lattice="16.28999089631971 0.0 0.0 0.0 16.28999089631971 0.0 0.0 0.0 34.433804113860816" Properties=species:S:1:pos:R:3:initial_magmoms:R:1 pbc="T T T"
Si      -1.39967264       0.84378357      -1.72596096       0.00000000
Si       0.47863278       1.86663593       1.41877682       0.00000000
Si      -1.84385207      -1.52899569       0.37884092       0.00000000
Si       1.98483876       0.22040370      -1.47383651       0.00000000
Si       1.22681619      -1.54334718       2.23248250       0.00000000
Si       2.22433434       0.64448683       2.47362257       0.00000000
Si      -2.78673749      -1.06290621      -1.66835318       0.00000000
Si       3.37106889       0.87046008       0.41014127       0.00000000
Si      -0.94191875      -1.18825776      -3.16243677       0.00000000
Si      -3.41745371      -0.42367032       1.74465853       0.00000000
