10
Lattice="16.28999089631971 0.0 0.0 0.0 16.28999089631971 0.0 0.0 0.0 34.433804113860816" Properties=species:S:1:pos:R:3:initial_magmoms:R:1 pbc="T T T"
Si      -0.88716317      -1.92743280       0.98677008       0.00000000
Si       1.45723824      -0.64071828      -1.72792369       0.00000000
Si       0.96013260       1.37234569       1.68522575       0.00000000
Si      -1.84102901       1.41978494      -0.59449996       0.00000000
Si       2.45475639       1.54711573      -1.48678362       0.00000000
Si      -0.98460344       2.11172876       2.77082090       0.00000000
Si      -2.90839121       1.75712152       1.47927705       0.00000000
Si      -0.76860455      -3.59481204      -0.59301931       0.00000000
Si       2.49740361       2.83099579       0.54777326       0.00000000
Si       0.70905483       2.76926483      -2.54162937       0.00000000
