10
Lattice="16.290000149 0.0 0.0 0.0 16.290000149 0.0 0.0 0.0 29.1751946751" Properties=species:S:1:pos:R:3:initial_magmoms:R:1 pbc="T T T"
Si      -0.68805703       2.04982285       0.76722009       0.00000000
Si       2.05599350      -0.61300248       0.89281931       0.00000000
Si      -1.24243831      -1.78683057       0.84202529       0.00000000
Si      -0.63863317      -0.67566034      -2.14749855       0.00000000
Si      -0.69040279      -2.82047995      -1.17021706       0.00000000
H        0.68637916       2.30912707      -2.14017558       0.00000000
Si      -1.30292308       1.53577560       2.94911620       0.00000000
Si      -3.52922853       0.78687543      -0.77177142       0.00000000
Si       1.53277498      -1.86560901       2.82506328       0.00000000
Si       1.07393455       3.53819129       0.43704442       0.00000000
