10
Lattice="16.290000149 0.0 0.0 0.0 16.290000149 0.0 0.0 0.0 29.1751946751" Properties=species:S:1:pos:R:3:initial_magmoms:R:1 pbc="T T T"
Si      -1.52233309       1.31894430       1.19577453       0.00000000
Si       1.40989951       1.28861232      -1.38030764       0.00000000
Si      -1.23703003      -1.42927647      -1.42797990       0.00000000
Si       0.98139106      -0.84806229       1.99383280       0.00000000
Si      -0.08529444       2.64944635       2.40861655       0.00000000
Si      -0.76861108      -1.17932596       3.48051320       0.00000000
Si       1.11185767      -3.14896291       1.74680643       0.00000000
Si      -2.57546531      -2.80762225      -0.10949451       0.00000000
Si      -2.68591151      -0.11671948       2.70229406       0.00000000
Si       0.06141330       2.62059676      -2.78789408       0.00000000
