10
Lattice="16.290000149 0.0 0.0 0.0 16.290000149 0.0 0.0 0.0 29.1751946751" Properties=species:S:1:pos:R:3:initial_magmoms:R:1 pbc="T T T"
Si      -2.30666402      -0.08759785       0.36238509       0.00000000
H       -0.90345970       1.56999763      -1.48939369       0.00000000
Si       0.97329493      -0.39992928      -2.15394627       0.00000000
Si       1.02136672       2.15120855       0.39214379       0.00000000
Si       0.05478327      -2.06682635       1.28971866       0.00000000
H       -2.91928206       1.21969747      -0.07518448       0.00000000
Si       2.84117151       1.26294742       1.53899152       0.00000000
Si       2.89059537      -1.46253576      -1.37572713       0.00000000
Si       3.52922853      -0.78687543       0.77177142       0.00000000
Si      -3.15573141      -1.74925280      -1.03370632       0.00000000
