10
Lattice="16.290000149 0.0 0.0 0.0 16.290000149 0.0 0.0 0.0 29.1751946751" Properties=species:S:1:pos:R:3:initial_magmoms:R:1 pbc="T T T"
Si       1.38927637      -1.33113736      -1.31545118       0.00000000
Si       1.40191741       1.32377428       1.32347436       0.00000000
Si      -1.30323259       1.34622190      -1.41724343       0.00000000
Si      -1.34368066      -1.32344848       1.41094159       0.00000000
Si      -0.17039340       2.45992034       2.61538115       0.00000000
Si       0.00944820      -2.65743659      -2.67063897       0.00000000
Si      -2.79663465       0.10666692       2.54121781       0.00000000
Si      -2.70632288      -2.64235205       0.02692870       0.00000000
Si       2.72992696       0.07407063      -2.64639438       0.00000000
Si       2.72293868      -2.66776445       0.09514031       0.00000000
