10
Lattice="16.290000149 0.0 0.0 0.0 16.290000149 0.0 0.0 0.0 29.1751946751" Properties=species:S:1:pos:R:3:initial_magmoms:R:1 pbc="T T T"
Si      -1.40989951      -1.28861232       1.38030764       0.00000000
Si       1.32367654      -1.39396789      -1.36548664       0.00000000
Si       1.39885489       1.37122705       1.31533448       0.00000000
Si      -1.34848621       1.33198444      -1.40758644       0.00000000
Si       0.00635310       2.72380205       2.62926854       0.00000000
Si      -2.64692954      -2.71788878      -0.04767227       0.00000000
Si       2.59050098      -2.79116121       0.05840874       0.00000000
Si       2.68900661      -0.03468141      -2.74220572       0.00000000
Si      -2.71720460       2.71932230      -0.09689082       0.00000000
Si       2.73997802       2.71953407      -0.05665823       0.00000000
