10
Lattice="16.290000149 0.0 0.0 0.0 16.290000149 0.0 0.0 0.0 29.1751946751" Properties=species:S:1:pos:R:3:initial_magmoms:R:1 pbc="T T T"
Si       1.34557682       1.32895450      -1.38163219       0.00000000
Si      -1.33134262      -1.36018243      -1.37845501       0.00000000
Si      -1.35466990       1.38836413       1.32989290       0.00000000
Si       1.36945796      -1.34907265       1.36347355       0.00000000
Si      -2.62665827      -2.67488318       0.09050145       0.00000000
Si       2.70792582       2.69667920      -0.01849707       0.00000000
Si      -2.69543465       0.03432303       2.71431424       0.00000000
Si      -0.03992679       2.66888846      -2.75354612       0.00000000
Si       0.00992876       2.71803539       2.70885848       0.00000000
Si       2.73037344       0.00487071       2.71670660       0.00000000
