10
Lattice="16.290000149 0.0 0.0 0.0 16.290000149 0.0 0.0 0.0 29.1751946751" Properties=species:S:1:pos:R:3:initial_magmoms:R:1 pbc="T T T"
Si      -2.18857781       0.71560342       0.47080012       0.00000000
Si      -0.26143821      -2.03150963       1.18880166       0.00000000
Si       1.58040694       1.29490840       1.21333800       0.00000000
Si      -0.25633944       0.89078608      -2.24018815       0.00000000
H        2.27541980      -0.78846859      -1.46398209       0.00000000
H        0.65868616      -1.96978682      -1.92445419       0.00000000
H        1.65429839      -2.63479349      -0.48923884       0.00000000
H        1.04554108      -2.48139056       1.81274237       0.00000000
Si      -2.13680819       2.86042303      -0.50648138       0.00000000
Si      -2.39542823      -0.08353512      -2.90582021       0.00000000
