10
Lattice="16.290000149 0.0 0.0 0.0 16.290000149 0.0 0.0 0.0 29.1751946751" Properties=species:S:1:pos:R:3:initial_magmoms:R:1 pbc="T T T"
Si       1.33843528       1.37834578      -1.31848540       0.00000000
Si       1.54823419      -1.31566186       1.19066887       0.00000000
Si      -1.36515088       1.37060803       1.34319679       0.00000000
Si      -1.40887324      -1.32499603      -1.35740511       0.00000000
Si       2.62187552      -2.73214254      -0.31348747       0.00000000
Si       2.57546531       2.80762225       0.10949451       0.00000000
Si      -0.05988204       2.72141883      -2.67586133       0.00000000
Si       2.61052139       0.04313592      -2.78853593       0.00000000
Si      -2.71091666       0.07959294       2.71443094       0.00000000
Si      -2.78327685      -2.64618020       0.00668112       0.00000000
