10
Lattice="16.290000149 0.0 0.0 0.0 16.290000149 0.0 0.0 0.0 29.1751946751" Properties=species:S:1:pos:R:3:initial_magmoms:R:1 pbc="T T T"
Si       1.34647766      -1.48629961       1.15933471       0.00000000
Si      -1.20876346      -1.34132936      -1.45873056       0.00000000
Si       1.39684634       1.28386378      -1.39582884       0.00000000
Si      -1.25107006       1.25755543       1.60810756       0.00000000
H        1.58292701       1.48265065       2.11785656       0.00000000
Si       2.19554504       0.17535534       2.55542613       0.00000000
Si      -2.39103482      -2.53566884       0.11713841       0.00000000
Si      -2.54015348       2.60206688       0.10252163       0.00000000
Si       0.02446595       2.59942790      -2.76729639       0.00000000
Si       2.69885718       2.73885402      -0.10415544       0.00000000
