10
Lattice="16.290000149 0.0 0.0 0.0 16.290000149 0.0 0.0 0.0 29.1751946751" Properties=species:S:1:pos:R:3:initial_magmoms:R:1 pbc="T T T"
H       -0.60000958      -0.09133803      -1.40040934       0.00000000
Si      -1.71595604       0.44217576       1.52460815       0.00000000
Si       0.47772054      -2.02996208       1.05853441       0.00000000
H        1.51539355      -0.84667276      -1.70756579       0.00000000
Si       1.89850178       1.49972257       0.31835972       0.00000000
Si       0.79358365      -0.92926306      -3.02998984       0.00000000
Si      -2.56083689       2.28688796       0.40002109       0.00000000
Si      -0.33734961       1.47054718       3.15678524       0.00000000
Si       2.07146900      -1.21710736       2.62025341       0.00000000
Si       0.92711278       2.95411008       1.83021831       0.00000000
