10
Lattice="16.290000149 0.0 0.0 0.0 16.290000149 0.0 0.0 0.0 29.1751946751" Properties=species:S:1:pos:R:3:initial_magmoms:R:1 pbc="T T T"
Si       1.44539542      -1.19358460      -1.35736018       0.00000000
Si      -1.34546279      -1.46179945       1.23390184       0.00000000
Si      -1.35772101       1.24209622      -1.45670172       0.00000000
Si       1.42654789       1.35951454       1.27958728       0.00000000
Si      -2.70604595      -0.00351864       2.52081384       0.00000000
Si       0.08700489      -2.53939925      -2.69868975       0.00000000
Si       0.09692550       2.67395465       2.69933102       0.00000000
Si      -2.52837760       2.83377194      -0.17001728       0.00000000
Si       2.75556756      -0.03613122       2.64874124       0.00000000
Si       0.04004082      -2.80173342       2.60581577       0.00000000
