10
Lattice="16.290000149 0.0 0.0 0.0 16.290000149 0.0 0.0 0.0 29.1751946751" Properties=species:S:1:pos:R:3:initial_magmoms:R:1 pbc="T T T"
Si      -1.32962239       1.31444011       1.41974375       0.00000000
Si      -1.42654789      -1.35951454      -1.27958728       0.00000000
Si       1.32901966      -1.39564576       1.36915396       0.00000000
Si       1.33532389       1.36474950      -1.40846753       0.00000000
Si       0.01884753      -2.55309914      -2.63694746       0.00000000
Si       2.63313191       2.64850479       0.09777775       0.00000000
Si      -2.60848026       2.68772459       0.03242239       0.00000000
Si      -2.74232379      -0.07591140       2.67559292       0.00000000
Si       2.66600513      -0.07082892       2.77394250       0.00000000
Si       2.71103069      -2.75209779       0.04474016       0.00000000
