10
Lattice="16.290000149 0.0 0.0 0.0 16.290000149 0.0 0.0 0.0 29.1751946751" Properties=species:S:1:pos:R:3:initial_magmoms:R:1 pbc="T T T"
Si       1.39268098       1.43573545      -1.17619797       0.00000000
Si       1.70121359      -1.59772321       0.01575461       0.00000000
Si      -0.95707009       1.27068517       1.75383765       0.00000000
Si      -1.59374845      -0.81285472      -1.56171900       0.00000000
Si      -2.07146900       1.21710736      -2.62025341       0.00000000
Si      -0.17296722       2.71682993      -2.30189368       0.00000000
Si       0.62995060      -3.35736903      -1.04832310       0.00000000
Si      -2.40881861       2.68765454       0.53653183       0.00000000
Si      -0.29820474      -2.31443435      -2.88239253       0.00000000
Si       2.35498016      -2.02134467       2.14703759       0.00000000
