10
Lattice="16.290000149 0.0 0.0 0.0 16.290000149 0.0 0.0 0.0 29.1751946751" Properties=species:S:1:pos:R:3:initial_magmoms:R:1 pbc="T T T"
Si       1.36231642       1.35920503       1.32790899       0.00000000
Si       1.36726858      -1.34514676      -1.34693121       0.00000000
Si      -1.32854725       1.37143882      -1.37146755       0.00000000
Si      -1.35581671      -1.36964692       1.36306510       0.00000000
Si      -0.00270414      -2.69206913      -2.68353441       0.00000000
Si       0.00441459       2.69708645       2.68540162       0.00000000
Si      -2.70726770       0.00814500      -2.67574463       0.00000000
Si       2.69661404      -0.00755856       2.69144088       0.00000000
Si      -2.71647155       2.68413590      -0.01479182       0.00000000
Si       2.69149898      -2.72605008       0.01639646       0.00000000
