10
Lattice="16.290000149 0.0 0.0 0.0 16.290000149 0.0 0.0 0.0 29.1751946751" Properties=species:S:1:pos:R:3:initial_magmoms:R:1 pbc="T T T"
Si      -2.06954678       0.72094328      -0.84497199       0.00000000
Si      -0.78206662      -1.49748107       1.71004569       0.00000000
Si       1.05037921      -0.67351657      -2.06951326       0.00000000
Si       0.92132983       2.08167631       0.81381288       0.00000000
H       -1.38854332       2.28192928       1.73224801       0.00000000
Si      -1.31106808       1.30571193      -2.99684682       0.00000000
Si      -2.66947490       2.24270296       0.91163731       0.00000000
H        0.39630312      -3.58747180      -0.52766257       0.00000000
Si      -2.32166711      -2.81234472       0.52241104       0.00000000
Si      -3.35224257      -1.26852512      -0.96024318       0.00000000
