10
Lattice="16.290000149 0.0 0.0 0.0 16.290000149 0.0 0.0 0.0 29.1751946751" Properties=species:S:1:pos:R:3:initial_magmoms:R:1 pbc="T T T"
Si       1.26939077      -1.36168111      -1.42500403       0.00000000
Si       1.36084446       1.40827051       1.31253366       0.00000000
Si      -1.39412525       1.35635428      -1.34836080       0.00000000
Si      -1.29522866      -1.35904213       1.44481399       0.00000000
Si       2.64177115      -2.67724523      -0.05353648       0.00000000
Si      -0.07618279       2.64979658       2.68181307       0.00000000
Si      -2.72475763      -2.63090018       0.04352939       0.00000000
Si       2.61440395       0.00309510      -2.78780655       0.00000000
Si      -0.03449668       2.69526197      -2.74626107       0.00000000
Si      -0.11148322      -2.72872163      -2.75585971       0.00000000
