10
Lattice="16.290000149 0.0 0.0 0.0 16.290000149 0.0 0.0 0.0 29.1751946751" Properties=species:S:1:pos:R:3:initial_magmoms:R:1 pbc="T T T"
Si      -2.23200695       0.50687964      -0.32407806       0.00000000
Si       0.89111188      -1.42200298       1.58998976       0.00000000
Si       0.55203553      -1.03364938      -2.01224235       0.00000000
Si       1.24243831       1.78683057      -0.84202529       0.00000000
H       -0.01814706      -1.49363011       2.80621610       0.00000000
Si       0.60380515       1.11117023      -2.98952385       0.00000000
Si       2.77521330      -0.07877844       1.98303798       0.00000000
Si       3.29843181       1.17382809       0.05079401       0.00000000
Si       1.16077654       1.45175667       3.05849401       0.00000000
Si      -1.06440490      -2.72473058      -2.07774066       0.00000000
