10
Lattice="16.290000149 0.0 0.0 0.0 16.290000149 0.0 0.0 0.0 29.1751946751" Properties=species:S:1:pos:R:3:initial_magmoms:R:1 pbc="T T T"
Si      -1.35739684       1.35399223      -1.30386863       0.00000000
Si       1.37968156       1.34702011       1.29838369       0.00000000
Si      -1.34019460      -1.29953476       1.39927151       0.00000000
Si       1.35847198      -1.34899120      -1.33368567       0.00000000
H       -0.44030241      -2.20543796       2.20707430       0.00000000
Si       2.60460812      -0.18565713       2.53628720       0.00000000
Si      -2.66957264      -0.07418466      -2.62667195       0.00000000
Si      -2.55220319       2.75485080       0.17318396       0.00000000
Si       2.60003063      -2.73970110       0.03600219       0.00000000
Si       0.01080027       2.60982092      -2.73704171       0.00000000
