10
Lattice="16.290000149 0.0 0.0 0.0 16.290000149 0.0 0.0 0.0 29.1751946751" Properties=species:S:1:pos:R:3:initial_magmoms:R:1 pbc="T T T"
Si       1.35790183      -1.33788142      -1.35749263       0.00000000
Si       1.37982817       1.32629923       1.35518779       0.00000000
Si      -1.35055504      -1.35099487       1.36960034       0.00000000
Si      -1.35021295       1.34762284      -1.37563960       0.00000000
Si      -0.00944820       2.65743659       2.67063897       0.00000000
Si      -0.00441459      -2.69708645      -2.68540162       0.00000000
Si       2.69219945      -2.70464501       0.00603927       0.00000000
Si      -2.71577108       0.01508454       2.69756767       0.00000000
Si      -2.72088614      -0.01295055      -2.70019344       0.00000000
Si      -2.73162126       2.69143382      -0.05467431       0.00000000
