10
Lattice="16.290000149 0.0 0.0 0.0 16.290000149 0.0 0.0 0.0 29.1751946751" Properties=species:S:1:pos:R:3:initial_magmoms:R:1 pbc="T T T"
Si      -0.53608761      -0.25747974       1.38558835       0.00000000
H       -0.67448746      -0.92458783      -1.61703516       0.00000000
H       -1.59578470       0.84321928      -1.16519892       0.00000000
H        1.27215127       1.75666475       0.42324455       0.00000000
Si       0.45359505      -0.98521921      -2.62427959       0.00000000
Si       2.18141021       1.82829188      -0.79298179       0.00000000
Si       2.51656067      -0.29040183      -1.72959307       0.00000000
Si       1.15373926      -1.18596088       2.69689665       0.00000000
Si      -2.33421041      -1.85318300       1.26669943       0.00000000
Si      -1.38536677       1.61733637       2.50116026       0.00000000
