10
Lattice="16.290000149 0.0 0.0 0.0 16.290000149 0.0 0.0 0.0 29.1751946751" Properties=species:S:1:pos:R:3:initial_magmoms:R:1 pbc="T T T"
Si      -1.30697929       1.42530985       1.30187333       0.00000000
Si       1.26446239       1.48356289      -1.32656693       0.00000000
Si       1.45174852      -1.41696937       1.21730582       0.00000000
Si      -1.37860642      -1.02837142      -1.63217709       0.00000000
Si       0.33734961      -1.47054718      -3.15678524       0.00000000
Si      -0.42536448       2.41204403      -2.63787523       0.00000000
Si       2.23585139       0.02917539      -2.83842551       0.00000000
Si      -2.22348728       0.81634078      -2.75676414       0.00000000
Si       2.40881861      -2.68765454      -0.53653183       0.00000000
Si      -2.60711678      -0.05882319       2.57560661       0.00000000
