10
Lattice="16.290000149 0.0 0.0 0.0 16.290000149 0.0 0.0 0.0 29.1751946751" Properties=species:S:1:pos:R:3:initial_magmoms:R:1 pbc="T T T"
Si       1.33134262       1.36018243       1.37845501       0.00000000
Si      -1.29531565      -1.31470075       1.46895646       0.00000000
Si      -1.38800575       1.36029646      -1.35645691       0.00000000
Si       1.40033565      -1.34946361      -1.36911020       0.00000000
Si      -0.10606419      -2.73461862      -2.53658624       0.00000000
Si       0.07137936       2.53892684      -2.77323354       0.00000000
Si      -2.68548797      -2.65944026       0.19344905       0.00000000
Si       2.67691943       2.68913693      -0.00317718       0.00000000
Si       2.70080057       0.01110978       2.74192856       0.00000000
Si       2.75924910      -2.68890887       0.01174885       0.00000000
