10
Lattice="16.290000149 0.0 0.0 0.0 16.290000149 0.0 0.0 0.0 29.1751946751" Properties=species:S:1:pos:R:3:initial_magmoms:R:1 pbc="T T T"
Si      -0.55203553       1.03364938       2.01224235       0.00000000
Si      -1.61644042      -1.69108121      -0.06549831       0.00000000
Si       2.18857781      -0.71560342      -0.47080012       0.00000000
Si       0.05176962       2.14481961      -0.97728150       0.00000000
Si       0.69040279       2.82047995       1.17021706       0.00000000
Si       1.93223837       0.17518266      -2.71098826       0.00000000
Si       1.92713960      -2.74711305       0.71800154       0.00000000
Si      -3.43380171      -0.22980303       0.10030432       0.00000000
Si      -0.20685042      -0.79913854      -3.37662033       0.00000000
Si      -2.78404248       1.54052902       1.68816429       0.00000000
