10
Lattice="16.290000149 0.0 0.0 0.0 16.290000149 0.0 0.0 0.0 29.1751946751" Properties=species:S:1:pos:R:3:initial_magmoms:R:1 pbc="T T T"
Si      -1.36563958      -1.34674481       1.34687286       0.00000000
Si      -1.36355446       1.36389655      -1.33508608       0.00000000
Si       1.35871633       1.34312680       1.36551581       0.00000000
Si       1.36210465      -1.36509713      -1.34415957       0.00000000
Si       0.00936675      -2.69245173       2.68023761       0.00000000
Si       2.71182890       0.02070459      -2.68108369       0.00000000
Si       0.00726534       2.72091872      -2.67329391       0.00000000
Si      -2.74880721       0.01278765      -2.65943570       0.00000000
Si      -0.00143352       2.69387732       2.72140381       0.00000000
Si       2.71453304       2.71277372       0.00245072       0.00000000
