10
Lattice="16.290000149 0.0 0.0 0.0 16.290000149 0.0 0.0 0.0 29.1751946751" Properties=species:S:1:pos:R:3:initial_magmoms:R:1 pbc="T T T"
Si       1.17600769      -0.52665570       0.79689127       0.00000000
H       -0.99561223       0.66500668      -1.43521535       0.00000000
H        0.62112142       1.84632491      -0.97474325       0.00000000
H       -0.60875731       0.15340293       2.30198121       0.00000000
Si      -1.91573660       0.60328387       1.67804050       0.00000000
Si      -1.69290569      -0.16439868      -2.47703238       0.00000000
Si       2.49108311      -1.56745639      -0.84756858       0.00000000
Si      -1.65429839       2.63479349       0.48923884       0.00000000
Si       0.46436274      -2.37128645       2.19741731       0.00000000
Si      -2.88202683      -1.40393737       0.81279175       0.00000000
