10
Lattice="16.290000149 0.0 0.0 0.0 16.290000149 0.0 0.0 0.0 29.1751946751" Properties=species:S:1:pos:R:3:initial_magmoms:R:1 pbc="T T T"
H       -0.85875994      -0.74964952      -1.14360928       0.00000000
Si       1.18227136       1.19433948      -1.57586897       0.00000000
Si      -1.51003414       1.26745161       1.19522020       0.00000000
Si       1.06165189      -1.72175528       1.17529354       0.00000000
H       -2.09393291      -2.31280535      -0.25732522       0.00000000
Si      -1.78171877      -1.97027552      -1.68545100       0.00000000
Si       2.39103482       2.53566884      -0.11713841       0.00000000
Si      -2.78894577      -0.22942836       2.41999487       0.00000000
Si       2.82693405      -0.69025618       2.32400848       0.00000000
Si      -0.35072370       2.43286102      -2.82859347       0.00000000
