10
Lattice="16.290000149 0.0 0.0 0.0 16.290000149 0.0 0.0 0.0 29.1751946751" Properties=species:S:1:pos:R:3:initial_magmoms:R:1 pbc="T T T"
H       -0.61261804       1.30729532      -0.43756957       0.00000000
Si      -0.84906739      -1.66165495      -1.39609142       0.00000000
Si       2.30666402       0.08759785      -0.36238509       0.00000000
Si      -0.75847870      -0.58476865       2.15187483       0.00000000
H        1.40320432       1.65759548      -1.85177878       0.00000000
Si       2.36144729      -1.97922850       0.92733356       0.00000000
Si      -2.19554504      -0.17535534      -2.55542613       0.00000000
Si      -2.13038341       2.77862442       0.18768403       0.00000000
Si       1.31106808      -1.30571193       2.99684682       0.00000000
Si       0.50331213       2.56349868      -2.65958157       0.00000000
