10
Lattice="16.290000149 0.0 0.0 0.0 16.290000149 0.0 0.0 0.0 29.1751946751" Properties=species:S:1:pos:R:3:initial_magmoms:R:1 pbc="T T T"
Si       1.36148563       1.30929247      -1.30655274       0.00000000
Si      -1.42045543      -1.40357899      -1.17479756       0.00000000
Si       1.28317960      -1.29917638       1.44370533       0.00000000
Si      -1.07364133       1.41648067       1.50415634       0.00000000
H        1.98047306      -0.46977102       2.48552236       0.00000000
Si       1.06544746       2.39080187       2.16978840       0.00000000
Si      -0.54630145      -2.15225111       2.58217978       0.00000000
Si      -2.12418344      -0.35531748       2.68026678       0.00000000
Si       2.54922212       2.47624292       0.29455277       0.00000000
Si       0.01464471      -2.72494235      -2.45798098       0.00000000
