10
Lattice="16.290000149 0.0 0.0 0.0 16.290000149 0.0 0.0 0.0 29.1751946751" Properties=species:S:1:pos:R:3:initial_magmoms:R:1 pbc="T T T"
Si      -1.34796493      -1.36177885      -1.35054894       0.00000000
Si       1.34265439      -1.38324907       1.34363442       0.00000000
Si      -1.38963475       1.35048988       1.33243114       0.00000000
Si       1.34886088       1.34773687      -1.37765269       0.00000000
Si       2.71037909      -0.02544498       2.67238948       0.00000000
Si      -0.03904713       2.73621503       2.65505942       0.00000000
Si      -2.69037823      -0.00373041      -2.71478104       0.00000000
Si       2.71419095       2.70308117      -0.03042973       0.00000000
Si       0.01110978      -2.71700912      -2.70483230       0.00000000
Si      -0.03243339      -2.72057663       2.70491982       0.00000000
