10
Lattice="16.290000149 0.0 0.0 0.0 16.290000149 0.0 0.0 0.0 29.1751946751" Properties=species:S:1:pos:R:3:initial_magmoms:R:1 pbc="T T T"
Si       2.26814957      -0.48966111       0.11716758       0.00000000
Si      -0.27922689       0.73551143       2.20646162       0.00000000
Si      -0.57674746       1.76799607      -1.48460896       0.00000000
Si      -1.53044551      -1.84290401      -0.43161783       0.00000000
H       -1.32411637       1.85095941       2.22376251       0.00000000
Si       2.54967824      -1.31670442      -2.03371530       0.00000000
Si      -1.11521341      -1.19343799       3.22312963       0.00000000
Si      -1.78728995       0.64100336      -3.16250358       0.00000000
Si      -2.67812489      -1.97078051       1.62928875       0.00000000
Si      -3.06620157      -0.85587661      -1.93772890       0.00000000
