10
Lattice="16.290000149 0.0 0.0 0.0 16.290000149 0.0 0.0 0.0 29.1751946751" Properties=species:S:1:pos:R:3:initial_magmoms:R:1 pbc="T T T"
Si       1.43303478      -1.34299648       1.29441586       0.00000000
Si      -1.25859799      -1.36260964      -1.45686335       0.00000000
Si       1.37927431       1.33222879      -1.38561752       0.00000000
Si      -1.42267087       1.28500408       1.40852005       0.00000000
Si      -2.68949531       2.68219739      -0.01537533       0.00000000
Si       0.10507050      -2.83428084       2.53339885       0.00000000
Si      -0.03624525       2.70500177       2.68216317       0.00000000
Si      -2.60007950      -2.81183322      -0.20731893       0.00000000
Si      -2.82743904      -0.27596889       2.60198974       0.00000000
Si      -2.64494216      -0.01757691      -2.80108127       0.00000000
