10
Lattice="16.290000149 0.0 0.0 0.0 16.290000149 0.0 0.0 0.0 29.1751946751" Properties=species:S:1:pos:R:3:initial_magmoms:R:1 pbc="T T T"
Si      -0.97953400       1.85518667      -0.89912115       0.00000000
Si      -1.76199158      -1.48836844       0.33017568       0.00000000
Si       0.38372724       0.64368307       2.22233293       0.00000000
Si       1.75813085      -0.96321142      -1.25914305       0.00000000
H       -0.38755539      -1.22906422      -2.57722000       0.00000000
Si       1.87080878      -1.22096809       2.57794938       0.00000000
Si       2.48888396      -2.28970613       0.53498554       0.00000000
Si      -2.46171224       0.83846260      -2.36899663       0.00000000
Si      -3.58179636      -0.60010732      -0.81667205       0.00000000
Si      -1.07393455      -3.53819129      -0.43704442       0.00000000
