10
Lattice="16.290000149 0.0 0.0 0.0 16.290000149 0.0 0.0 0.0 29.1751946751" Properties=species:S:1:pos:R:3:initial_magmoms:R:1 pbc="T T T"
Si      -0.72180991      -0.08259030      -1.32242405       0.00000000
H       -2.11540313       0.75533473       0.30715645       0.00000000
H        1.14794002       1.63038466      -1.12210716       0.00000000
H        1.79556527       1.20280474      -1.08044498       0.00000000
Si      -1.51539355       0.84667276       1.70756579       0.00000000
Si       0.25787070      -2.68486895       1.44542667       0.00000000
Si       2.24837840      -2.08425665       0.27526796       0.00000000
Si       0.88511716      -0.87275305      -2.84618612       0.00000000
Si       0.38310822       2.34639533       2.02592552       0.00000000
Si      -1.03767301      -1.18328932       2.76610021       0.00000000
