10
Lattice="16.290000149 0.0 0.0 0.0 16.290000149 0.0 0.0 0.0 29.1751946751" Properties=species:S:1:pos:R:3:initial_magmoms:R:1 pbc="T T T"
Si      -1.19702179      -0.36590598      -0.88946416       0.00000000
H        1.40242240      -2.03041820       0.45705860       0.00000000
Si      -0.34754715       1.12109410      -2.52108692       0.00000000
Si       0.07794765       2.93314485      -1.03534013       0.00000000
Si      -1.96734006      -2.48065751       0.28728814       0.00000000
Si       1.99879931       1.17595882       2.18834383       0.00000000
Si      -1.45226980      -1.57110535       2.38034578       0.00000000
Si       0.60452191      -0.56246113       3.10310288       0.00000000
Si      -0.65462995      -2.74836738      -1.62523339       0.00000000
H        3.11474577       0.64244503      -0.73667367       0.00000000
