10
Lattice="16.290000149 0.0 0.0 0.0 16.290000149 0.0 0.0 0.0 29.1751946751" Properties=species:S:1:pos:R:3:initial_magmoms:R:1 pbc="T T T"
Si      -1.34618932      -1.32999055       1.34679117       0.00000000
Si       1.31536864      -1.32319273      -1.40082363       0.00000000
Si      -1.20286990       1.39704670      -1.44147927       0.00000000
Si       1.42833979       1.40418172       1.24257738       0.00000000
Si       2.30410649       0.46406952      -2.55331092       0.00000000
Si       0.67106656       2.19947582      -2.63735824       0.00000000
Si      -2.64738566      -2.65725740      -0.07885763       0.00000000
Si      -2.70225038       0.06504597       2.63642230       0.00000000
Si       2.69830820      -2.64749111      -0.03505400       0.00000000
Si       0.05064561       2.75273310       2.59379734       0.00000000
