10
Lattice="16.290000149 0.0 0.0 0.0 16.290000149 0.0 0.0 0.0 29.1751946751" Properties=species:S:1:pos:R:3:initial_magmoms:R:1 pbc="T T T"
Si      -1.40439186       1.30901554       1.32026508       0.00000000
Si       1.36932275      -1.23523813       1.44682708       0.00000000
Si       1.32745745       1.40467042      -1.33890803       0.00000000
Si      -1.39694733      -1.37210671      -1.31148335       0.00000000
Si       2.56412910      -2.63609669      -0.03022550       0.00000000
Si      -2.71796861       2.61943202      -0.08314930       0.00000000
Si      -0.11335722       2.72743472       2.62661360       0.00000000
Si       2.62339212       0.04768083      -2.75971084       0.00000000
Si      -0.00160619      -2.65909817       2.74731138       0.00000000
Si      -0.07504803      -2.70560612      -2.71807784       0.00000000
