10
Lattice="16.290000149 0.0 0.0 0.0 16.290000149 0.0 0.0 0.0 29.1751946751" Properties=species:S:1:pos:R:3:initial_magmoms:R:1 pbc="T T T"
Si       1.25428114      -1.10669374       1.60256427       0.00000000
Si      -1.80955838      -1.32645399      -0.60640642       0.00000000
Si       1.21684672       1.32584311      -1.49193193       0.00000000
Si      -1.33258717       1.54694728       1.15667977       0.00000000
Si      -0.64132102      -1.12305379       2.94129725       0.00000000
H        3.09277056      -0.52571903      -0.77311348       0.00000000
Si      -0.19512162      -2.85698910      -1.68186245       0.00000000
Si       2.75473677       2.04309182       0.11579635       0.00000000
Si      -3.03081969       0.54439551      -1.55780952       0.00000000
Si      -2.54185904      -1.67113084       1.65534220       0.00000000
