10
Lattice="16.290000149 0.0 0.0 0.0 16.290000149 0.0 0.0 0.0 29.1751946751" Properties=species:S:1:pos:R:3:initial_magmoms:R:1 pbc="T T T"
Si      -1.33965703      -1.32957352      -1.40951201       0.00000000
Si      -1.38471517       1.35607735       1.35463346       0.00000000
Si       1.35962857       1.33890769      -1.39790028       0.00000000
Si       1.39412525      -1.35635428       1.34836080       0.00000000
Si      -2.68078016      -2.67788054      -0.03751930       0.00000000
Si       2.66351602      -2.71803539      -0.07664324       0.00000000
Si       0.02404404       2.71028135       2.67764102       0.00000000
Si      -2.70699077       2.68322366      -0.08209900       0.00000000
Si       2.75496971       0.05191623       2.66089446       0.00000000
Si      -2.73377153      -0.03692943       2.70608683       0.00000000
