10
Lattice="16.290000149 0.0 0.0 0.0 16.290000149 0.0 0.0 0.0 29.1751946751" Properties=species:S:1:pos:R:3:initial_magmoms:R:1 pbc="T T T"
Si      -0.08289981       0.69232501       2.22978136       0.00000000
Si       0.72966169      -2.19011396      -0.40235511       0.00000000
Si       1.93893356       1.02796417      -0.90101754       0.00000000
Si      -2.20376009       0.38136519      -0.80459352       0.00000000
H        2.45140067      -0.25443351       1.49403254       0.00000000
Si       2.63019971      -1.64203690       0.88359995       0.00000000
Si      -2.15446655       2.67555107      -0.13773609       0.00000000
Si       1.46196235      -1.84543710      -2.66410373       0.00000000
Si       1.01077822       2.07089885      -2.73508698       0.00000000
Si       0.24070104       0.02541240      -3.61550683       0.00000000
