10
Lattice="16.290000149 0.0 0.0 0.0 16.290000149 0.0 0.0 0.0 29.1751946751" Properties=species:S:1:pos:R:3:initial_magmoms:R:1 pbc="T T T"
Si       1.34778574       1.34324083       1.31340891       0.00000000
Si      -1.30893409       1.42794883      -1.29631225       0.00000000
Si       1.44049213      -1.33371118      -1.27898218       0.00000000
Si      -1.36819711      -1.25582869       1.43317309       0.00000000
Si      -2.65952171       0.04222368      -2.61894053       0.00000000
Si       0.07276743      -2.69151527      -2.60773725       0.00000000
Si      -0.01080027      -2.60982092       2.73704171       0.00000000
Si      -2.68037291      -2.68400558       0.11036976       0.00000000
Si      -2.60486876       2.78493843       0.12449056       0.00000000
Si       2.73479780       0.04916322       2.66964701       0.00000000
