10
Lattice="16.290000149 0.0 0.0 0.0 16.290000149 0.0 0.0 0.0 29.1751946751" Properties=species:S:1:pos:R:3:initial_magmoms:R:1 pbc="T T T"
Si       1.30013749       1.48413304      -1.27373327       0.00000000
Si       1.37370313      -1.35151615       1.36099366       0.00000000
Si      -1.38432421       1.37114560       1.35127540       0.00000000
Si      -1.17335242      -1.46769643      -1.45002760       0.00000000
Si       2.60711678       0.05882319      -2.57560661       0.00000000
Si      -2.52911863      -0.05932818      -2.76366991       0.00000000
Si      -2.66090799      -2.66745494      -0.01465762       0.00000000
Si       0.01834254      -2.66603771       2.76062402       0.00000000
Si       2.71713944       0.01796787       2.72403833       0.00000000
Si      -0.02197521       2.73887031       2.71441051       0.00000000
