10
Lattice="16.290000149 0.0 0.0 0.0 16.290000149 0.0 0.0 0.0 29.1751946751" Properties=species:S:1:pos:R:3:initial_magmoms:R:1 pbc="T T T"
Si      -1.37440360      -1.32118417       1.36408623       0.00000000
Si      -1.37355652       1.35106003      -1.34719379       0.00000000
Si       1.28956528      -1.37150398      -1.40957036       0.00000000
Si       1.40887324       1.32499603       1.35740511       0.00000000
Si       0.04525362      -2.69135237       2.61896970       0.00000000
Si       0.04372236       2.69560406       2.70060190       0.00000000
Si      -0.01197315       2.70317891      -2.69622562       0.00000000
Si       2.65621484      -0.01438407      -2.74827416       0.00000000
Si       2.61029333      -2.81072550      -0.13087992       0.00000000
Si      -2.73209366      -2.70397712       0.01412079       0.00000000
