10
Lattice="16.290000149 0.0 0.0 0.0 16.290000149 0.0 0.0 0.0 29.1751946751" Properties=species:S:1:pos:R:3:initial_magmoms:R:1 pbc="T T T"
Si       0.52427899      -0.67541599       2.22965590       0.00000000
Si      -2.01012086       1.36510201       0.08122374       0.00000000
Si       1.15998322       2.05778540      -0.58983491       0.00000000
Si      -1.22274370      -1.58775373      -1.41307138       0.00000000
Si       2.19380690      -1.41913594      -1.04458867       0.00000000
H       -1.03449646       1.10684035      -2.38848566       0.00000000
H       -2.66533724      -1.30157101      -0.97369295       0.00000000
H       -1.55576017       2.64808613      -0.58026545       0.00000000
Si      -0.00444717       2.21762288      -2.60610344       0.00000000
H        3.39082869      -1.05322996      -0.15512451       0.00000000
