10
Lattice="16.290000149 0.0 0.0 0.0 16.290000149 0.0 0.0 0.0 29.1751946751" Properties=species:S:1:pos:R:3:initial_magmoms:R:1 pbc="T T T"
Si       0.45766755       2.20760453      -0.60798188       0.00000000
Si       1.07597080       0.08752617       2.09909691       0.00000000
Si      -0.42549480      -1.81205075      -1.48574679       0.00000000
Si      -2.30879312       0.17787051       0.60062973       0.00000000
H        2.73569376       1.01612134      -0.78463769       0.00000000
H       -0.07794765      -2.93314485       1.03534013       0.00000000
H        1.81439651       2.78392845      -0.33280145       0.00000000
Si      -1.27496944      -3.29905083       0.14587597       0.00000000
Si      -2.08320106       2.03219381       2.03418210       0.00000000
Si      -1.99079440      -0.73666639      -2.84942456       0.00000000
