10
Lattice="16.290000149 0.0 0.0 0.0 16.290000149 0.0 0.0 0.0 29.1751946751" Properties=species:S:1:pos:R:3:initial_magmoms:R:1 pbc="T T T"
Si       1.34603620      -1.36083077       1.35501274       0.00000000
Si      -1.31390661      -1.38376709      -1.36408623       0.00000000
Si      -1.37988356       1.34764239       1.34112535       0.00000000
Si       1.32450082       1.38382248      -1.36178139       0.00000000
Si      -2.63074380       0.05078570      -2.64055934       0.00000000
Si       2.68056188      -0.01121404      -2.65141252       0.00000000
Si      -0.00944820       2.71631191       2.66614599       0.00000000
Si       2.66050889      -2.73060802      -0.03740260       0.00000000
Si       2.70134792       0.00236042       2.70608683       0.00000000
Si      -0.02873230      -2.71000117       2.70532828       0.00000000
