10
Lattice="16.290000149 0.0 0.0 0.0 16.290000149 0.0 0.0 0.0 29.1751946751" Properties=species:S:1:pos:R:3:initial_magmoms:R:1 pbc="T T T"
Si       1.31357674      -1.31041648       1.40341439       0.00000000
Si      -1.57231081       1.13614606       1.29190680       0.00000000
Si      -1.40191741      -1.32377428      -1.32347436       0.00000000
Si       1.32796428       1.49128435      -1.23898299       0.00000000
H       -0.64935199       2.35677206       1.83374851       0.00000000
H       -1.88452496       0.79361623       2.72003257       0.00000000
Si       2.67394977       0.12838149      -2.61188013       0.00000000
Si      -0.01264104      -2.65491164      -2.63892553       0.00000000
Si       2.60461138       0.10800270       2.70976291       0.00000000
Si       2.71796861      -2.61943202       0.08314930       0.00000000
