10
Lattice="16.290000149 0.0 0.0 0.0 16.290000149 0.0 0.0 0.0 29.1751946751" Properties=species:S:1:pos:R:3:initial_magmoms:R:1 pbc="T T T"
Si       1.37043536       1.36866952       1.32502064       0.00000000
Si       1.37988356      -1.34764239      -1.34112535       0.00000000
Si      -1.32423040       1.38090331      -1.36332767       0.00000000
Si      -1.35249355      -1.35069188       1.37333476       0.00000000
Si      -2.68348430      -2.70511742      -0.01131998       0.00000000
Si       0.00511506       2.71849151       2.67504442       0.00000000
Si      -2.69420312       0.03398094      -2.69993087       0.00000000
Si       2.69672807       0.00783549       2.70013509       0.00000000
Si       2.70438437       0.03618009      -2.70290674       0.00000000
Si      -2.69149898       2.72605008      -0.01639646       0.00000000
