10
Lattice="16.28999089631971 0.0 0.0 0.0 16.28999089631971 0.0 0.0 0.0 34.54679606040008" Properties=species:S:1:pos:R:3:initial_magmoms:R:1 pbc="T T T"
Si      -1.33883112      -1.34092583       1.37901905       0.00000000
Si       1.37948607       1.36667809       1.37352610       0.00000000
Si       1.18253997      -1.56494591      -1.34912223       0.00000000
Si      -1.30119470       1.40316280      -1.49217369       0.00000000
Si       2.23735005       0.08194020      -2.63783694       0.00000000
Si       0.65619378       2.10207059      -2.73607465       0.00000000
Si      -2.70144305      -2.69736155       0.02917479       0.00000000
Si      -2.68958393       2.72928446      -0.01232976       0.00000000
Si      -2.69645831       0.00966178       2.73560339       0.00000000
Si       0.01842399      -2.70462689       2.73391060       0.00000000
