10
Lattice="16.28999089631971 0.0 0.0 0.0 16.28999089631971 0.0 0.0 0.0 34.54679606040008" Properties=species:S:1:pos:R:3:initial_magmoms:R:1 pbc="T T T"
Si      -1.35780408      -1.35648771       1.35772439       0.00000000
Si       1.35684297       1.35837015       1.35751711       0.00000000
Si      -1.35576783       1.35706206      -1.36066087       0.00000000
Si       1.35925389      -1.35673206      -1.35813895       0.00000000
Si       0.00663003       2.71188181      -2.71100261       0.00000000
Si       2.71283886      -2.71530177       0.00086367       0.00000000
Si      -0.00050499      -2.71394970       2.71493058       0.00000000
Si       2.71288773       2.71623124       0.00148551       0.00000000
Si       2.71432125       0.00072333       2.71524150       0.00000000
Si      -0.00066789       2.71600318       2.71479239       0.00000000
