10
Lattice="16.28999089631971 0.0 0.0 0.0 16.28999089631971 0.0 0.0 0.0 34.54679606040008" Properties=species:S:1:pos:R:3:initial_magmoms:R:1 pbc="T T T"
Si       1.82508273       0.77887377      -1.20108913       0.00000000
Si      -1.83734910      -1.19576745      -0.89963362       0.00000000
Si       1.21340952      -1.26250758       1.64750308       0.00000000
Si      -1.03956264       2.15897886       0.36861452       0.00000000
Si      -2.84995831      -0.44175222       1.22572101       0.00000000
Si       2.18043279       0.60725862       2.62054868       0.00000000
Si       3.00148137       1.67938497       0.63721601       0.00000000
Si      -0.61410042      -3.23798678      -1.49722443       0.00000000
Si      -1.60068798      -0.28611756       3.25990659       0.00000000
Si      -2.27063052       0.11499111      -2.84741762       0.00000000
