10
Lattice="16.28999089631971 0.0 0.0 0.0 16.28999089631971 0.0 0.0 0.0 34.54679606040008" Properties=species:S:1:pos:R:3:initial_magmoms:R:1 pbc="T T T"
Si       0.96702327       1.86976620       0.97304560       0.00000000
Si      -1.48366062      -0.97132872       1.49739717       0.00000000
Si       1.46629548      -1.52226955      -1.00776515       0.00000000
Si      -1.21340952       1.26250758      -1.64750308       0.00000000
Si      -2.81409750       0.97639002       1.61240351       0.00000000
Si      -1.09866276       2.76216498       1.81864800       0.00000000
Si       0.61167321       2.04138135      -2.84859221       0.00000000
Si       1.78807185       2.94189255      -1.01028707       0.00000000
Si       0.58262814      -1.78775631      -3.14034006       0.00000000
Si       2.46857031       1.25131635       2.63954943       0.00000000
