10
Lattice="16.28999089631971 0.0 0.0 0.0 16.28999089631971 0.0 0.0 0.0 34.54679606040008" Properties=species:S:1:pos:R:3:initial_magmoms:R:1 pbc="T T T"
Si      -1.34413677      -1.35099486       1.36469594       0.00000000
Si      -1.34493498       1.28674710      -1.44345577       0.00000000
Si       1.37386602      -1.30020264      -1.41351750       0.00000000
Si       1.37010303       1.36590021       1.36030849       0.00000000
Si       0.41223474       1.99775673      -2.95156387       0.00000000
Si       2.35426338       0.38478609      -2.95992420       0.00000000
Si      -2.69679321      -2.71135647       0.01034677       0.00000000
Si      -2.69259039       2.72857500      -0.02525027       0.00000000
Si      -2.70464499       0.00544086       2.72176394       0.00000000
Si       2.72683197      -2.70106119      -0.00442545       0.00000000
