10
Lattice="16.28999089631971 0.0 0.0 0.0 16.28999089631971 0.0 0.0 0.0 34.54679606040008" Properties=species:S:1:pos:R:3:initial_magmoms:R:1 pbc="T T T"
Si       1.28552535       1.26157905      -1.49273335       0.00000000
Si      -1.20197394       1.48877568       1.47459627       0.00000000
Si      -1.48230855      -1.36842516      -1.37447960       0.00000000
Si       1.47300696      -0.94009590       1.72056959       0.00000000
Si      -1.82967651      -0.32591403       2.82651679       0.00000000
Si       2.53228050      -0.19922670      -2.80675601       0.00000000
Si      -0.21854664       2.54400930      -2.80147035       0.00000000
Si       2.31880005       1.06852626       2.81895104       0.00000000
Si       2.55700872       2.81955465      -0.18088713       0.00000000
Si      -2.94360300       2.62343934       0.21640125       0.00000000
