10
Lattice="16.28999089631971 0.0 0.0 0.0 16.28999089631971 0.0 0.0 0.0 34.54679606040008" Properties=species:S:1:pos:R:3:initial_magmoms:R:1 pbc="T T T"
Si       1.43185842       1.22673474       1.40242797       0.00000000
Si      -1.92842649      -0.79276914       1.14118495       0.00000000
Si      -0.51759846       1.73319084      -1.56003054       0.00000000
Si       1.23292494      -1.90151541      -0.78397088       0.00000000
Si      -1.06261299      -2.31523254       2.69244060       0.00000000
Si       2.53513125       2.73417876      -0.09268911       0.00000000
Si       0.19966653       0.69108696      -3.67329378       0.00000000
Si       0.07587882       2.21412051       3.10479139       0.00000000
Si      -0.32716836      -3.07978740      -2.26675474       0.00000000
Si       0.52584120       3.76883811      -0.78656189       0.00000000
