10
Lattice="16.28999089631971 0.0 0.0 0.0 16.28999089631971 0.0 0.0 0.0 34.54679606040008" Properties=species:S:1:pos:R:3:initial_magmoms:R:1 pbc="T T T"
Si       0.86581350      -1.52246340       1.55125565       0.00000000
Si      -1.23217560      -1.60546095      -1.18785770       0.00000000
Si      -1.88169048       1.00629846       1.03719904       0.00000000
Si       1.92842649       0.79276914      -1.14118495       0.00000000
Si       0.30419946      -3.25259172      -1.65437789       0.00000000
Si      -1.99883187      -0.14235831       3.12095930       0.00000000
Si      -0.95926923      -2.30133717       2.75234478       0.00000000
Si       1.55953944      -3.37331691       0.28967505       0.00000000
Si       3.16135143      -1.10874627      -1.92515583       0.00000000
Si      -3.22989975      -2.18634606      -0.09507284       0.00000000
