10
Lattice="16.28999089631971 0.0 0.0 0.0 16.28999089631971 0.0 0.0 0.0 34.54679606040008" Properties=species:S:1:pos:R:3:initial_magmoms:R:1 pbc="T T T"
Si      -1.56162456       1.14109821      -1.34466915       0.00000000
Si       1.35034326       1.35892809       1.38050111       0.00000000
Si      -1.36270737      -1.36039419       1.37780645       0.00000000
Si       1.30080537      -1.28963043      -1.60740459       0.00000000
Si      -2.41114806      -0.68488047      -2.61297153       0.00000000
Si      -0.55843749      -2.34766593      -2.76637566       0.00000000
Si       2.70040959       2.69995610      -0.01245413       0.00000000
Si       2.69897607      -2.71476108      -0.02459733       0.00000000
Si       2.70392823       0.00035838       2.73950373       0.00000000
Si      -2.74416453       2.70604412       0.00445308       0.00000000
