10
Lattice="16.28999089631971 0.0 0.0 0.0 16.28999089631971 0.0 0.0 0.0 34.54679606040008" Properties=species:S:1:pos:R:3:initial_magmoms:R:1 pbc="T T T"
Si      -1.35653346       1.35294056      -1.36304460       0.00000000
Si       1.36003581      -1.36132272      -1.36259549       0.00000000
Si       1.35720135       1.35887826       1.38256355       0.00000000
Si      -1.37235105      -1.35026181       1.38746920       0.00000000
Si       2.58408270      -0.22211415       2.79048446       0.00000000
Si      -2.71158453       2.71300895       0.00013819       0.00000000
Si       2.71868697       2.70896903      -0.00152006       0.00000000
Si      -2.71598283      -2.71440270      -0.00089822       0.00000000
Si       2.71614573      -2.71513575      -0.00787667       0.00000000
Si       0.00164529       2.71240622      -2.71990532       0.00000000
