10
Lattice="16.28999089631971 0.0 0.0 0.0 16.28999089631971 0.0 0.0 0.0 34.54679606040008" Properties=species:S:1:pos:R:3:initial_magmoms:R:1 pbc="T T T"
Si       1.43907489      -1.24274781      -1.37914342       0.00000000
Si      -1.30316742       1.49802840      -1.35219690       0.00000000
Si      -1.32937803      -1.27905822       1.59779021       0.00000000
Si       1.67829354       0.82473012       1.59599378       0.00000000
Si       2.65326633       2.62617606       0.05081837       0.00000000
Si      -2.67719634      -2.60294652       0.04484177       0.00000000
Si       0.07654671      -2.58703119      -2.74422628       0.00000000
Si      -2.64679920       0.13388751      -2.74056432       0.00000000
Si       0.15959313       0.91500930       3.71512998       0.00000000
Si       2.93084793      -2.50823646       0.03202490       0.00000000
