10
Lattice="16.28999089631971 0.0 0.0 0.0 16.28999089631971 0.0 0.0 0.0 34.54679606040008" Properties=species:S:1:pos:R:3:initial_magmoms:R:1 pbc="T T T"
Si      -0.25686072       2.21904728       0.84470418       0.00000000
Si       1.51870041      -0.09027918      -2.11913620       0.00000000
Si      -2.44912005      -0.87053760      -0.30187007       0.00000000
Si       0.85128282      -1.16100459       2.22920236       0.00000000
Si      -1.48897116      -2.19406752      -2.11733977       0.00000000
Si       1.43053893       0.77222745       3.45174506       0.00000000
Si      -0.15959313      -0.91500930      -3.71512998       0.00000000
Si       2.04165828       3.18194755       0.78186353       0.00000000
Si      -0.62107254       1.99733028       3.24560421       0.00000000
Si      -0.02063943      -3.80280276      -1.06172728       0.00000000
