10
Lattice="16.28999089631971 0.0 0.0 0.0 16.28999089631971 0.0 0.0 0.0 34.54679606040008" Properties=species:S:1:pos:R:3:initial_magmoms:R:1 pbc="T T T"
Si       1.35565380      -1.35734608      -1.35952083       0.00000000
Si      -1.35708732       1.35763884      -1.35920990       0.00000000
Si       1.35609363       1.36213488       1.35851897       0.00000000
Si      -1.37559276      -1.36110907       1.34791310       0.00000000
Si      -0.05870916       2.55167466       2.84620848       0.00000000
Si       2.71041165      -2.71348858       0.00583841       0.00000000
Si      -2.71414206       2.71097457       0.00176189       0.00000000
Si       2.71363707       2.71534029      -0.00608024       0.00000000
Si      -2.71668330      -2.71313020      -0.00459473       0.00000000
Si       2.71362078      -0.00029207      -2.71627791       0.00000000
