10
Lattice="16.28999089631971 0.0 0.0 0.0 16.28999089631971 0.0 0.0 0.0 34.54679606040008" Properties=species:S:1:pos:R:3:initial_magmoms:R:1 pbc="T T T"
Si       0.58811787       0.21877470       2.33121910       0.00000000
Si      -2.29485375       0.93146220      -0.19781506       0.00000000
Si      -1.20462921      -2.17150424       0.16720659       0.00000000
Si       1.66969242       1.05502185      -1.73943215       0.00000000
Si      -0.74670102      -1.91524788      -2.14331897       0.00000000
Si       0.04051323       0.17666505      -3.24094039       0.00000000
Si      -1.44906066       2.94008436       0.90056638       0.00000000
Si      -3.20153886      -1.12433743       1.15279268       0.00000000
Si      -0.15798042       2.41869033       2.91509483       0.00000000
Si       2.95402860      -0.18715581       2.45804046       0.00000000
