10
Lattice="16.28999089631971 0.0 0.0 0.0 16.28999089631971 0.0 0.0 0.0 34.54679606040008" Properties=species:S:1:pos:R:3:initial_magmoms:R:1 pbc="T T T"
Si       1.64905299       1.02584646       1.54866464       0.00000000
Si       2.51260218      -0.59768662       0.09593651       0.00000000
Si      -0.32752674      -2.16781523       1.61710188       0.00000000
Si       0.03103245       1.86535161      -2.30313254       0.00000000
Si       0.54952686      -0.36798295       3.00082417       0.00000000
Si       2.47153509      -0.91983277      -2.25369605       0.00000000
Si      -3.24094437       0.60300693       1.81977461       0.00000000
Si       2.19059775       1.28409183      -3.10793515       0.00000000
Si      -0.89894736       3.78665937      -1.21822435       0.00000000
Si      -2.18400030       2.42312121       2.92057537       0.00000000
