10
Lattice="16.28999089631971 0.0 0.0 0.0 16.28999089631971 0.0 0.0 0.0 34.54679606040008" Properties=species:S:1:pos:R:3:initial_magmoms:R:1 pbc="T T T"
Si      -1.49835420       1.79181855       0.41210896       0.00000000
Si      -0.41220216      -1.57216419      -1.76893513       0.00000000
Si      -1.01714760      -1.84492395       1.18478303       0.00000000
Si       2.37430008       0.74000583       0.17784701       0.00000000
Si      -3.16988739      -0.86643252       1.28959807       0.00000000
Si       2.06964450       1.06145640       2.77024003       0.00000000
Si       3.30427989      -1.18130193      -0.90706118       0.00000000
Si       1.77494211      -1.74521286      -2.64030946       0.00000000
Si      -3.56891094       0.84258396      -0.34529542       0.00000000
Si      -1.22119614      -3.56150551      -0.67034641       0.00000000
