10
Lattice="16.28999089631971 0.0 0.0 0.0 16.28999089631971 0.0 0.0 0.0 34.54679606040008" Properties=species:S:1:pos:R:3:initial_magmoms:R:1 pbc="T T T"
Si       1.27687536      -1.33216362       1.52352147       0.00000000
Si      -1.45642374       1.37761272       1.50494219       0.00000000
Si       1.64144556       1.30530141      -1.38334919       0.00000000
Si      -1.04865246      -2.06096193      -1.40473366       0.00000000
Si      -0.01762578       1.96877682      -2.85670177       0.00000000
Si       2.69343747      -2.67033825       0.00716501       0.00000000
Si       2.65074138       2.76640038       0.16353771       0.00000000
Si       2.61658125       0.02073717       2.91135341       0.00000000
Si      -2.80582218      -2.77197156       0.10337444       0.00000000
Si      -0.09078417      -2.69281845       2.90713870       0.00000000
