10
Lattice="16.28999089631971 0.0 0.0 0.0 16.28999089631971 0.0 0.0 0.0 34.54679606040008" Properties=species:S:1:pos:R:3:initial_magmoms:R:1 pbc="T T T"
Si      -1.33468857      -1.34553771       1.36397736       0.00000000
Si       1.35694071      -1.35635427      -1.35551339       0.00000000
Si       1.33589403       1.36448298       1.36998851       0.00000000
Si      -1.35671265       1.35855342      -1.35551339       0.00000000
Si       0.16257420      -2.55676437       2.73386223       0.00000000
Si      -2.56880268       0.07713315       2.77808216       0.00000000
Si      -2.71388142       0.00148239      -2.71323779       0.00000000
Si       0.00135207      -2.71388142      -2.71341052       0.00000000
Si       2.71603170       0.00100998      -2.71327233       0.00000000
Si       0.00086337       2.71609686      -2.71361780       0.00000000
