10
Lattice="16.28999089631971 0.0 0.0 0.0 16.28999089631971 0.0 0.0 0.0 34.54679606040008" Properties=species:S:1:pos:R:3:initial_magmoms:R:1 pbc="T T T"
Si       1.44629136      -1.24493067       1.35271510       0.00000000
Si      -1.33589403      -1.36448298      -1.36998851       0.00000000
Si       1.37687967       1.35368271      -1.36104089       0.00000000
Si      -1.50309459       1.31714424       1.40709179       0.00000000
Si      -2.67058260      -2.71002069      -0.00601115       0.00000000
Si       2.39490693       0.29178648       2.94214498       0.00000000
Si      -2.70912474       2.70606222      -0.01896620       0.00000000
Si      -2.69260668      -0.00592956      -2.72550190       0.00000000
Si       0.02212182       2.70982521      -2.72640012       0.00000000
Si       0.02104668      -2.72083725      -2.72550190       0.00000000
