10
Lattice="16.28999089631971 0.0 0.0 0.0 16.28999089631971 0.0 0.0 0.0 34.54679606040008" Properties=species:S:1:pos:R:3:initial_magmoms:R:1 pbc="T T T"
Si       1.21184568      -2.03923107       0.28166019       0.00000000
Si      -0.62165898       0.33723558       2.28198989       0.00000000
Si       1.75524750       1.53831357      -0.60197826       0.00000000
Si      -1.98141786       0.28030203      -1.57713122       0.00000000
Si       1.83659976       2.21017833       1.62625679       0.00000000
Si      -0.63513081       2.68309332       1.82946115       0.00000000
Si      -3.20453622      -1.36764324       0.06159697       0.00000000
Si      -0.38942874       1.26309402      -3.22715621       0.00000000
Si      -2.88443772      -0.56280321       2.28243900       0.00000000
Si       0.83074113       2.99887497      -2.14224802       0.00000000
