10
Lattice="16.28999089631971 0.0 0.0 0.0 16.28999089631971 0.0 0.0 0.0 34.54679606040008" Properties=species:S:1:pos:R:3:initial_magmoms:R:1 pbc="T T T"
Si       1.73151297       0.87532248      -1.35361332       0.00000000
Si       0.89199153      -1.87639623       1.15659283       0.00000000
Si      -0.60854553       1.73463480       1.57015276       0.00000000
Si      -2.11476780      -0.60773103      -1.01685096       0.00000000
Si       2.43245538       2.60168309       0.13580353       0.00000000
Si       0.27968301       3.57575993       0.37497113       0.00000000
Si      -2.28921741      -2.81300607      -0.28704949       0.00000000
Si       0.46141425       2.02740520      -3.03148305       0.00000000
Si      -2.80306917       1.13833447       2.10390106       0.00000000
Si      -0.09067014      -1.77007140       3.29707896       0.00000000
