10
Lattice="16.28999089631971 0.0 0.0 0.0 16.28999089631971 0.0 0.0 0.0 34.54679606040008" Properties=species:S:1:pos:R:3:initial_magmoms:R:1 pbc="T T T"
Si      -1.34817669       1.33176766      -1.34690778       0.00000000
Si       1.34232858       1.35624501       1.34953680       0.00000000
Si       1.32054885      -1.38382325      -1.36291332       0.00000000
Si      -1.37399634      -1.35324692       1.34556391       0.00000000
Si      -2.22523029      -0.46806461      -2.73063007       0.00000000
Si      -0.40951431      -2.19943097      -2.77681917       0.00000000
Si       2.47954977       0.08321686      -2.83226680       0.00000000
Si       2.69430084      -2.70714140       0.00269811       0.00000000
Si       2.69928558      -0.00011807       2.70912671       0.00000000
Si      -0.01531260      -2.71486286       2.70708845       0.00000000
