10
Lattice="16.28999089631971 0.0 0.0 0.0 16.28999089631971 0.0 0.0 0.0 34.54679606040008" Properties=species:S:1:pos:R:3:initial_magmoms:R:1 pbc="T T T"
Si       1.41222801      -1.93809365       0.10709513       0.00000000
Si      -0.82324773       0.08638587      -2.26274731       0.00000000
Si       1.45819350       1.92871971       0.01019131       0.00000000
Si      -1.42630353       0.26143821       2.12708197       0.00000000
Si      -1.24238943      -2.01434714       2.59605499       0.00000000
Si       3.02781320       1.01338461       1.49218060       0.00000000
Si      -2.71063971       1.50361587      -2.07039064       0.00000000
Si       0.90616383      -2.94400115       2.16643079       0.00000000
Si      -0.01599678       3.71162763       0.77319227       0.00000000
Si       1.77670699       2.53092843      -2.33073545       0.00000000
