10
Lattice="16.28999089631971 0.0 0.0 0.0 16.28999089631971 0.0 0.0 0.0 34.54679606040008" Properties=species:S:1:pos:R:3:initial_magmoms:R:1 pbc="T T T"
Si       0.18391410      -2.27578535       0.46897302       0.00000000
Si       1.10429910       1.15053012       1.73020815       0.00000000
Si      -2.36591073       0.40593051      -0.12682136       0.00000000
Si       1.42630353      -0.26143821      -2.12708197       0.00000000
Si       3.30089061       0.18378378       1.46889604       0.00000000
Si       0.98318295       3.38012613       0.95977962       0.00000000
Si      -2.95402860       0.18715581      -2.45804046       0.00000000
Si      -3.44727351      -0.89955661       1.56704355       0.00000000
Si       2.88449703       1.66728150      -2.11689066       0.00000000
Si       2.33246736      -3.20543936       0.03934882       0.00000000
