10
Lattice="16.28999089631971 0.0 0.0 0.0 16.28999089631971 0.0 0.0 0.0 34.54679606040008" Properties=species:S:1:pos:R:3:initial_magmoms:R:1 pbc="T T T"
Si       1.23430959       1.23634584      -1.61907105       0.00000000
Si       1.74162906      -1.13466366       1.25819502       0.00000000
Si       0.08410527       1.65962520       1.80780030       0.00000000
Si      -1.40551749      -1.43384580      -1.47003609       0.00000000
Si       2.90496312       2.46759291      -0.44088646       0.00000000
Si       2.94360300      -2.62343934      -0.21640125       0.00000000
Si      -2.92791084       2.66106924      -0.31910893       0.00000000
Si       0.00847080       2.64481182      -3.02640467       0.00000000
Si      -2.68300373      -0.08337222      -3.01127316       0.00000000
Si       2.72505636      -0.07943004      -3.01787160       0.00000000
