10
Lattice="16.28999089631971 0.0 0.0 0.0 16.28999089631971 0.0 0.0 0.0 34.54679606040008" Properties=species:S:1:pos:R:3:initial_magmoms:R:1 pbc="T T T"
Si       0.04106709       0.32214615       2.34963255       0.00000000
Si      -0.28093734       2.20392460      -0.85423910       0.00000000
Si      -1.30499190      -1.70213137      -1.17825368       0.00000000
Si       2.40951973      -0.46149081      -0.08861258       0.00000000
Si      -2.47153509       0.91983277       2.25369605       0.00000000
Si       2.46566810      -1.90510477       1.84625091       0.00000000
Si      -2.44050264       2.78518438      -0.04943649       0.00000000
Si      -0.24710301      -3.68095912      -0.41197077       0.00000000
Si      -0.32146686       2.01310354      -3.21416661       0.00000000
Si       0.42829668      -3.38334082       1.85450760       0.00000000
