10
Lattice="16.28999089631971 0.0 0.0 0.0 16.28999089631971 0.0 0.0 0.0 34.54679606040008" Properties=species:S:1:pos:R:3:initial_magmoms:R:1 pbc="T T T"
Si      -0.86354919       1.62353308       1.45272813       0.00000000
Si      -0.04106709      -0.32214615      -2.34963255       0.00000000
Si       1.86465114      -1.01884714       1.41952864       0.00000000
Si      -2.51260218       0.59768662      -0.09593651       0.00000000
Si       2.42460101      -2.22725092      -0.50338165       0.00000000
Si       2.36845264      -0.78363697      -2.43824513       0.00000000
Si      -1.96307532       0.22970366       2.90488767       0.00000000
Si      -2.84012892      -1.57012861       1.52116537       0.00000000
Si      -0.32200443       1.88177845      -3.20387166       0.00000000
Si      -1.02441294      -3.30149497       1.47497628       0.00000000
