10
Lattice="16.28999089631971 0.0 0.0 0.0 16.28999089631971 0.0 0.0 0.0 34.54679606040008" Properties=species:S:1:pos:R:3:initial_magmoms:R:1 pbc="T T T"
Si       0.20165391      -2.26672092       0.53050090       0.00000000
Si       0.56651733       1.51022961       1.80911308       0.00000000
Si      -1.63659114      -2.50447347      -1.13555382       0.00000000
Si       0.31859982      -1.70649153      -2.68991868       0.00000000
Si      -1.79885583       2.04069717       1.96181000       0.00000000
Si      -2.63174724       2.33287461      -0.37801125       0.00000000
Si      -0.22546989      -2.33678421       2.84417022       0.00000000
Si       1.27257480       3.21173640      -1.39372217       0.00000000
Si      -2.28030678       1.45326348      -2.57553418       0.00000000
Si       1.37064044       3.54341709       0.91044677       0.00000000
