10
Lattice="16.28999089631971 0.0 0.0 0.0 16.28999089631971 0.0 0.0 0.0 34.54679606040008" Properties=species:S:1:pos:R:3:initial_magmoms:R:1 pbc="T T T"
Si       1.26706878      -1.47243681      -1.29986193       0.00000000
Si       1.36260963       1.35127179       1.35123995       0.00000000
Si      -1.35956340      -1.36352187       1.35248364       0.00000000
Si      -1.32540327       1.38214134      -1.39533205       0.00000000
Si       2.71769930      -0.12631266      -2.45826087       0.00000000
Si      -2.33469909      -0.07895763      -2.94221895       0.00000000
Si      -2.69926929      -2.71642266      -0.03534830       0.00000000
Si       0.00322542       2.70907587       2.70868797       0.00000000
Si      -2.71155195      -0.00527796       2.71072623       0.00000000
Si       0.00446346      -2.71847520       2.70920617       0.00000000
