10
Lattice="16.28999089631971 0.0 0.0 0.0 16.28999089631971 0.0 0.0 0.0 34.54679606040008" Properties=species:S:1:pos:R:3:initial_magmoms:R:1 pbc="T T T"
Si      -1.38987909       1.80973755      -0.54411234       0.00000000
Si      -0.66575601      -2.24018451      -0.22324152       0.00000000
Si       1.72955817      -0.06499710      -1.65154506       0.00000000
Si      -0.31221414       0.20826765       2.52139932       0.00000000
Si       1.54686582       1.69718994       2.65703012       0.00000000
Si       0.06287940       3.61445778       0.09635107       0.00000000
Si       0.70767018      -1.25346663      -3.37619117       0.00000000
Si      -2.98165644      -2.18338128      -0.06657171       0.00000000
Si      -1.56139650       1.72856448      -2.92393881       0.00000000
Si       0.25508511      -3.19604913      -2.21275807       0.00000000
