10
Lattice="16.28999089631971 0.0 0.0 0.0 16.28999089631971 0.0 0.0 0.0 34.54679606040008" Properties=species:S:1:pos:R:3:initial_magmoms:R:1 pbc="T T T"
Si       1.31162586      -1.40890581      -1.27443202       0.00000000
Si      -1.35022923      -1.36552554       1.34694233       0.00000000
Si      -1.37375199       1.32331815      -1.36561143       0.00000000
Si       1.36261193       1.35643572       1.34984426       0.00000000
Si       0.00486044      -2.84310999      -2.46255849       0.00000000
Si       2.70144305       2.69736155      -0.02917479       0.00000000
Si      -2.69430084       2.70714140      -0.00269811       0.00000000
Si       0.00498474       2.70702333       2.70642861       0.00000000
Si      -2.70961344      -0.00772146       2.70439035       0.00000000
Si       2.71986704      -0.00726534       2.70473581       0.00000000
