10
Lattice="16.28999089631971 0.0 0.0 0.0 16.28999089631971 0.0 0.0 0.0 34.54679606040008" Properties=species:S:1:pos:R:3:initial_magmoms:R:1 pbc="T T T"
Si       1.60759494      -1.39810554       0.95805228       0.00000000
Si       1.63584180       1.15463520      -1.24074887       0.00000000
Si      -0.94861557      -1.53671715      -1.58942988       0.00000000
Si      -1.75332528       1.30057731       1.09012476       0.00000000
Si      -1.94528664      -3.15657846      -0.22375972       0.00000000
Si      -2.29672710      -2.27696733       1.97376320       0.00000000
Si      -2.39490693      -0.29178648      -2.94214498       0.00000000
Si       0.35466588       2.42901819      -2.91820404       0.00000000
Si       1.70566058      -1.06642485       3.26222123       0.00000000
Si       2.98385789       2.38853754       0.46199456       0.00000000
