10
Lattice="16.28999089631971 0.0 0.0 0.0 16.28999089631971 0.0 0.0 0.0 34.54679606040008" Properties=species:S:1:pos:R:3:initial_magmoms:R:1 pbc="T T T"
Si       0.80858673      -2.21488614       0.29420068       0.00000000
Si      -0.67539969      -0.29761830      -2.26647837       0.00000000
Si      -1.41164253       0.40399200       1.97010124       0.00000000
Si       2.03737142       1.47823605      -0.00825669       0.00000000
Si       2.58879607      -1.82609271      -1.29059993       0.00000000
Si       1.59568695      -0.60748668      -3.14845857       0.00000000
Si       0.31842063       1.21959972       3.38400708       0.00000000
Si       1.47742155       2.68663983       1.91465360       0.00000000
Si       3.71482766      -0.20333178       0.01972623       0.00000000
Si      -0.38722959       3.70548697       0.49512496       0.00000000
