10
Lattice="16.28999089631971 0.0 0.0 0.0 16.28999089631971 0.0 0.0 0.0 34.54679606040008" Properties=species:S:1:pos:R:3:initial_magmoms:R:1 pbc="T T T"
Si      -1.35625514       1.35760860      -1.35806986       0.00000000
Si      -1.35772124      -1.35656604       1.35786258       0.00000000
Si       1.35753573       1.35819504       1.35786258       0.00000000
Si       1.36181348      -1.35791811      -1.35765530       0.00000000
Si       2.71230987      -2.71378368      -0.00055275       0.00000000
Si      -2.71440131      -2.71213839      -0.00010364       0.00000000
Si      -0.00602591       2.72313414      -2.70501219       0.00000000
Si      -2.71886477       0.00633681      -2.70930981       0.00000000
Si       0.00030780      -2.71401174       2.71468875       0.00000000
Si       2.71384113       2.71586880      -0.00027637       0.00000000
