10
Lattice="16.28999089631971 0.0 0.0 0.0 16.28999089631971 0.0 0.0 0.0 34.54679606040008" Properties=species:S:1:pos:R:3:initial_magmoms:R:1 pbc="T T T"
Si      -1.33677206       1.38833154      -1.39786779       0.00000000
Si       1.37699370      -1.32594084      -1.42902902       0.00000000
Si      -1.55938794      -1.30968342       1.27826672       0.00000000
Si       1.34781831       1.32388830       1.55294844       0.00000000
Si      -2.77474805       0.27574083       2.47928675       0.00000000
Si       2.67719634       2.60294652      -0.04484177       0.00000000
Si       2.60283249      -2.73440682      -0.02169540       0.00000000
Si       2.81615004      -0.28484694       2.60856093       0.00000000
Si      -2.68038351       0.01746288      -2.78689160       0.00000000
Si       0.03192840      -2.69649999      -2.78941351       0.00000000
