10
Lattice="16.28999089631971 0.0 0.0 0.0 16.28999089631971 0.0 0.0 0.0 34.54679606040008" Properties=species:S:1:pos:R:3:initial_magmoms:R:1 pbc="T T T"
Si      -1.29647223       0.44382105       1.90712240       0.00000000
Si       0.04572603      -2.35146150      -0.22572889       0.00000000
Si       2.09756556       1.04677911       0.33700418       0.00000000
Si      -1.16178651       1.10087820      -1.75884746       0.00000000
Si      -3.44089502      -0.41627466       1.14077039       0.00000000
Si      -1.85595554       3.28487850      -1.09824326       0.00000000
Si      -0.07141536      -3.50011827       1.85803137       0.00000000
Si       0.13722696       1.49925015      -3.67104824       0.00000000
Si      -0.38530737      -0.48904209       3.93622960       0.00000000
Si      -2.00009760      -3.30014223      -1.00216857       0.00000000
