10
Lattice="16.28999089631971 0.0 0.0 0.0 16.28999089631971 0.0 0.0 0.0 34.54679606040008" Properties=species:S:1:pos:R:3:initial_magmoms:R:1 pbc="T T T"
Si       0.07838748       1.62500895      -1.67320591       0.00000000
Si      -2.19109364       0.21380625       0.80252252       0.00000000
Si       1.93763034       0.14959107       1.36687930       0.00000000
Si       0.11060910      -2.26321857      -0.72154479       0.00000000
Si       1.02177396      -3.19608171       1.30756241       0.00000000
Si       1.93285737       2.91986847      -1.06259095       0.00000000
Si      -3.24707660       1.13912712      -1.26918090       0.00000000
Si       3.68701344      -0.46758816      -0.17166313       0.00000000
Si      -2.65622201      -1.84207320       1.89924572       0.00000000
Si      -2.05181414       1.52751330       2.76516165       0.00000000
