10
Lattice="16.28999089631971 0.0 0.0 0.0 16.28999089631971 0.0 0.0 0.0 34.54679606040008" Properties=species:S:1:pos:R:3:initial_magmoms:R:1 pbc="T T T"
Si       1.42599402      -1.80371025      -0.46558743       0.00000000
Si      -2.04747055      -0.36129591       1.13562291       0.00000000
Si       0.92654262       1.55968605       1.53173670       0.00000000
Si      -0.91116486       0.93286314      -2.02910720       0.00000000
Si       0.91585638       3.34567278       0.05931688       0.00000000
Si      -1.02177396       3.19608171      -1.30756241       0.00000000
Si       0.31389201      -3.01107618      -2.07819823       0.00000000
Si      -1.60035078      -0.40821111       3.46508013       0.00000000
Si      -0.47793231       1.75345560       3.45354149       0.00000000
Si      -2.97881288      -2.47453245       0.59019779       0.00000000
