10
Lattice="16.28999089631971 0.0 0.0 0.0 16.28999089631971 0.0 0.0 0.0 34.54679606040008" Properties=species:S:1:pos:R:3:initial_magmoms:R:1 pbc="T T T"
Si       1.51527951       1.53141380       1.09185210       0.00000000
Si      -1.21975610       1.36781007      -1.63271704       0.00000000
Si      -1.28857647      -1.36647036       1.74651425       0.00000000
Si       1.48393755      -1.32787935      -1.63375345       0.00000000
Si      -2.63659256      -2.60037270       0.04377082       0.00000000
Si      -2.70667214       2.72475404      -0.27910372       0.00000000
Si      -2.57363171       0.02037329      -3.02388275       0.00000000
Si       2.78710497      -2.82590775      -0.28155655       0.00000000
Si       0.14030577      -2.69202024      -3.02212086       0.00000000
Si       0.14470407       2.73539141      -3.02108446       0.00000000
