10
Lattice="16.28999089631971 0.0 0.0 0.0 16.28999089631971 0.0 0.0 0.0 34.54679606040008" Properties=species:S:1:pos:R:3:initial_magmoms:R:1 pbc="T T T"
Si      -1.24784984      -1.14158691       1.63230248       0.00000000
Si       0.23356602       2.29861674       0.52331516       0.00000000
Si       2.09852667      -1.15038351      -0.21512302       0.00000000
Si      -0.58580469      -1.23426072      -2.03422013       0.00000000
Si       0.74533266      -2.92721526      -0.94050250       0.00000000
Si      -0.55368081      -3.32558721       0.97169828       0.00000000
Si      -1.98899597       3.03589721       0.08325783       0.00000000
Si      -0.72058815      -0.09441684       3.68600701       0.00000000
Si       2.14941663       3.08647968      -0.68423423       0.00000000
Si       3.62177199      -0.07185519      -1.70063608       0.00000000
