10
Lattice="16.28999089631971 0.0 0.0 0.0 16.28999089631971 0.0 0.0 0.0 34.54679606040008" Properties=species:S:1:pos:R:3:initial_magmoms:R:1 pbc="T T T"
Si       0.17172918      -1.76599890       1.57388381       0.00000000
Si      -0.72858654      -0.66782484      -2.19942300       0.00000000
Si       2.41013808       0.18772288       0.00438745       0.00000000
Si      -1.22324868       2.04221933       0.59759081       0.00000000
Si       1.18726407       0.12003810      -3.40697238       0.00000000
Si       0.61410042       3.23798678       1.49722443       0.00000000
Si      -1.68274071      -3.06085842       0.96326885       0.00000000
Si       3.13290909       2.16600704      -0.96544530       0.00000000
Si       3.29380542       0.45320965       2.13696236       0.00000000
Si      -2.95114853       0.06945563      -2.63948033       0.00000000
