10
Lattice="16.28999089631971 0.0 0.0 0.0 16.28999089631971 0.0 0.0 0.0 34.54679606040008" Properties=species:S:1:pos:R:3:initial_magmoms:R:1 pbc="T T T"
Si      -0.55236932       1.15856109       1.96806298       0.00000000
Si      -1.37688767      -1.88009406       0.32543100       0.00000000
Si       1.94857641      -1.39421223      -0.07859400       0.00000000
Si      -0.78324749       1.38883653      -1.80997675       0.00000000
Si      -0.97426403      -2.69433342      -1.88687796       0.00000000
Si       1.42131472      -2.44138230      -2.13229854       0.00000000
Si      -0.50333642       3.50939447      -0.79240030       0.00000000
Si      -0.32090471      -2.80541493       2.39713442       0.00000000
Si      -2.88078047       0.82751571       2.19140814       0.00000000
Si      -3.49750358      -1.13577138       1.00786879       0.00000000
