10
Lattice="16.28999089631971 0.0 0.0 0.0 16.28999089631971 0.0 0.0 0.0 34.26581377546328" Properties=species:S:1:pos:R:3:initial_magmoms:R:1 pbc="T T T"
Si      -1.35037444      -1.35991363       1.38367147       0.00000000
Si       1.36856244       1.35242838       1.37986796       0.00000000
Si       1.34597309      -1.41484189      -1.37376864       0.00000000
Si      -1.37950096       1.43335710      -1.46159882       0.00000000
Si       2.52925914       0.21106953      -2.62200337       0.00000000
Si      -2.70620743       2.70892926       0.03114079       0.00000000
Si      -2.69413654      -2.72439566      -0.00504736       0.00000000
Si       2.73003339       2.70770751      -0.00863156       0.00000000
Si       2.73283527      -2.71686968       0.01364808       0.00000000
Si      -2.70742918      -0.00477297       2.74433343       0.00000000
