10
Lattice="16.28999089631971 0.0 0.0 0.0 16.28999089631971 0.0 0.0 0.0 34.26581377546328" Properties=species:S:1:pos:R:3:initial_magmoms:R:1 pbc="T T T"
Si       1.33099726       0.25598106       1.87159979       0.00000000
Si      -1.01667586       2.00038335      -0.63131371       0.00000000
Si       1.01852573      -1.23281091      -1.71305179       0.00000000
Si      -1.87576159      -1.38526902       0.38233816       0.00000000
Si       2.22012175      -1.93520313       1.73241198       0.00000000
Si      -2.85599605      -0.89241507      -1.74608405       0.00000000
Si      -0.96231613      -1.74127068      -2.84193965       0.00000000
Si       0.61974002       3.66084260      -0.35304088       0.00000000
Si      -2.60281687       2.56341625       1.03595893       0.00000000
Si       0.06919829       1.24458453       3.64872869       0.00000000
