10
Lattice="16.28999089631971 0.0 0.0 0.0 16.28999089631971 0.0 0.0 0.0 34.26581377546328" Properties=species:S:1:pos:R:3:initial_magmoms:R:1 pbc="T T T"
Si       1.22000697      -1.43806589       1.41517205       0.00000000
Si      -1.48859649       1.29269784       1.40982315       0.00000000
Si      -0.87004890      -0.80393919      -2.14814361       0.00000000
Si       1.91723526       0.79349079      -1.62082671       0.00000000
Si       2.68623729       2.49918411      -0.13337290       0.00000000
Si       1.15004142      -1.38448938      -3.24694607       0.00000000
Si      -2.70961344       2.65732743      -0.09828812       0.00000000
Si       2.57815314      -0.06473483       2.79201091       0.00000000
Si       2.66750379      -2.73769970      -0.01872970       0.00000000
Si      -0.13872564       2.65063224       2.78926964       0.00000000
