10
Lattice="16.28999089631971 0.0 0.0 0.0 16.28999089631971 0.0 0.0 0.0 34.26581377546328" Properties=species:S:1:pos:R:3:initial_magmoms:R:1 pbc="T T T"
Si       1.35267273       1.35479043      -1.39814878       0.00000000
Si      -1.35803214      -1.36539897      -1.39718934       0.00000000
Si      -1.53091791       1.40509395       1.43118104       0.00000000
Si       1.50820965      -1.30119438       1.56132268       0.00000000
Si       2.69291619       2.71726974      -0.02330077       0.00000000
Si      -2.69860140      -2.72485178      -0.01377486       0.00000000
Si       2.70817992      -2.71794482      -0.02079936       0.00000000
Si      -2.72960127       2.70299970      -0.06167850       0.00000000
Si      -0.00166158       2.70785412      -2.76066110       0.00000000
Si       2.71562445      -0.00577969      -2.75860515       0.00000000
