10
Lattice="16.28999089631971 0.0 0.0 0.0 16.28999089631971 0.0 0.0 0.0 34.26581377546328" Properties=species:S:1:pos:R:3:initial_magmoms:R:1 pbc="T T T"
Si      -1.55978379       0.23818261       1.77963030       0.00000000
Si       0.98787447      -2.17992847      -0.00582519       0.00000000
Si       1.27374768       2.11519786      -0.00507134       0.00000000
Si      -1.46072430       0.13011475      -2.03138137       0.00000000
Si      -2.51226009      -1.94823580       1.91213627       0.00000000
Si      -3.51668520       1.22201716      -0.68312365       0.00000000
Si       0.10278990       1.18609771      -3.60065372       0.00000000
Si      -0.33635592       0.48254890       3.79134308       0.00000000
Si       1.47973473      -2.83713223       2.16440134       0.00000000
Si       1.06152156       3.02672110      -2.29142478       0.00000000
