10
Lattice="16.28999089631971 0.0 0.0 0.0 16.28999089631971 0.0 0.0 0.0 34.26581377546328" Properties=species:S:1:pos:R:3:initial_magmoms:R:1 pbc="T T T"
Si       1.88384076       0.90948699      -1.27818410       0.00000000
Si      -0.95873166      -1.84062339      -1.30922894       0.00000000
Si       0.21222612      -0.91152324       2.28635344       0.00000000
Si      -1.88516025       1.89757323      -0.10235204       0.00000000
Si      -2.15741502      -0.54271764      -2.80208849       0.00000000
Si       0.56956356       2.18281113      -2.78420172       0.00000000
Si       2.65483017       2.60449407       0.23259647       0.00000000
Si      -2.52224586      -2.89660635       0.26004341       0.00000000
Si      -3.50753022       0.75171834      -1.40935371       0.00000000
Si      -0.79047225       3.56923674      -1.44615521       0.00000000
