10
Lattice="16.28999089631971 0.0 0.0 0.0 16.28999089631971 0.0 0.0 0.0 34.26581377546328" Properties=species:S:1:pos:R:3:initial_magmoms:R:1 pbc="T T T"
Si       2.13744348      -0.51813603       0.82011845       0.00000000
Si      -0.10858914       1.05692778      -2.14144323       0.00000000
Si      -0.82844424       1.13052600       1.94660770       0.00000000
Si      -0.77695155      -2.27038617      -0.04591622       0.00000000
Si      -0.50029848      -0.67857624       3.42901617       0.00000000
Si      -1.53785745      -2.40055956       2.22762180       0.00000000
Si       2.78609499      -2.28910338      -0.65954875       0.00000000
Si       1.79416431      -0.99193068       3.13864750       0.00000000
Si      -2.52887589       1.51808139      -2.34806620       0.00000000
Si      -2.00037942      -2.51475246      -2.05762900       0.00000000
