10
Lattice="16.28999089631971 0.0 0.0 0.0 16.28999089631971 0.0 0.0 0.0 34.26581377546328" Properties=species:S:1:pos:R:3:initial_magmoms:R:1 pbc="T T T"
Si       1.35402480       1.35726651      -1.38701239       0.00000000
Si      -1.35966114      -1.35588186      -1.38817742       0.00000000
Si      -1.27200465       1.37412666       1.53144287       0.00000000
Si       1.41125157      -1.40351382       1.42785726       0.00000000
Si      -2.70619254      -0.13465314       2.63874326       0.00000000
Si      -2.70141957       2.71197549      -0.00164476       0.00000000
Si       2.70536175       2.71888245      -0.00866926       0.00000000
Si      -2.73015513      -2.70306486      -0.04553929       0.00000000
Si       2.71712313      -2.72373687      -0.02025111       0.00000000
Si       2.71217097       0.00083079      -2.74877085       0.00000000
