10
Lattice="16.28999089631971 0.0 0.0 0.0 16.28999089631971 0.0 0.0 0.0 34.26581377546328" Properties=species:S:1:pos:R:3:initial_magmoms:R:1 pbc="T T T"
Si       0.97511940      -2.04540498       0.64659627       0.00000000
Si      -2.17833138      -0.73192599      -0.61154232       0.00000000
Si      -0.33596496       1.63067787       1.70095595       0.00000000
Si       0.33549255       0.59952087      -2.30931154       0.00000000
Si       0.70582941      -2.85588135      -1.73840850       0.00000000
Si      -2.11250349       2.78172927       0.68147889       0.00000000
Si      -3.58806798       1.02249072       0.09186670       0.00000000
Si       2.54066985       1.23310413      -2.63110198       0.00000000
Si      -2.16362151      -0.73840941      -3.12350200       0.00000000
Si       0.07731234      -1.37518551      -3.65352590       0.00000000
