10
Lattice="16.28999089631971 0.0 0.0 0.0 16.28999089631971 0.0 0.0 0.0 34.26581377546328" Properties=species:S:1:pos:R:3:initial_magmoms:R:1 pbc="T T T"
Si      -1.04241339       0.89539614       1.94626504       0.00000000
Si       1.11162960       1.55513399      -1.51842185       0.00000000
Si       1.63390329      -1.58358348       1.14040119       0.00000000
Si      -1.66576653      -1.20637224      -1.56043177       0.00000000
Si      -2.14242822      -1.86888654       2.48752814       0.00000000
Si       3.07651311       2.29064997      -0.21775937       0.00000000
Si       2.31159987       0.13838355      -3.10054389       0.00000000
Si      -0.39376188      -2.58049890      -3.09187464       0.00000000
Si       2.81217528      -2.95876899      -0.42506766       0.00000000
Si      -3.09995442      -2.71515204      -0.45313137       0.00000000
