10
Lattice="16.28999089631971 0.0 0.0 0.0 16.28999089631971 0.0 0.0 0.0 34.26581377546328" Properties=species:S:1:pos:R:3:initial_magmoms:R:1 pbc="T T T"
Si       2.15751276      -0.49001949       0.75288888       0.00000000
Si       0.66583746       1.12622544      -1.95572241       0.00000000
Si      -0.42130827      -2.22954714      -0.75737771       0.00000000
Si      -1.12860378       1.98446409       1.99485400       0.00000000
Si      -2.63783970      -1.75682763      -0.22797059       0.00000000
Si      -2.59884144       2.22980778       0.10735485       0.00000000
Si      -3.45725928       0.23993541      -1.05418835       0.00000000
Si       0.99790911       3.31511274      -1.17528380       0.00000000
Si       3.32832393       1.54144125       1.07975066       0.00000000
Si       0.00726534      -2.70343953       2.78827936       0.00000000
