10
Lattice="16.28999089631971 0.0 0.0 0.0 16.28999089631971 0.0 0.0 0.0 34.26581377546328" Properties=species:S:1:pos:R:3:initial_magmoms:R:1 pbc="T T T"
Si       1.06826562      -1.55566731       1.49296234       0.00000000
Si      -0.25361901      -1.04116720      -2.17207688       0.00000000
Si       1.66951323       1.74716766      -0.21381880       0.00000000
Si      -1.93624569       1.41542181       1.05285198       0.00000000
Si       0.06380793      -0.64423855       3.41925040       0.00000000
Si       1.77420906       2.21366439      -2.47820783       0.00000000
Si       0.23809464       0.79441443      -3.67624415       0.00000000
Si      -2.13372936       0.20733912       3.17548327       0.00000000
Si      -0.09036063      -3.73362632       0.88375010       0.00000000
Si       1.31652522       3.50362062       1.36199833       0.00000000
