10
Lattice="16.28999089631971 0.0 0.0 0.0 16.28999089631971 0.0 0.0 0.0 34.26581377546328" Properties=species:S:1:pos:R:3:initial_magmoms:R:1 pbc="T T T"
Si      -0.87943194      -0.15589693      -2.17533214       0.00000000
Si       1.56199923      -1.76671959       0.15580674       0.00000000
Si       1.65553641       1.80783488      -0.08038764       0.00000000
Si      -1.36948401       0.15294844       2.10683474       0.00000000
Si      -1.63238832      -2.36549112      -1.60812981       0.00000000
Si      -2.64487698      -2.40455454       0.54534073       0.00000000
Si       1.30528512       2.53746398       2.22402389       0.00000000
Si       0.27075609       1.04143599       3.66441014       0.00000000
Si      -2.28556845       1.71390674      -2.66492236       0.00000000
Si       3.24869841      -1.86933030      -1.44464752       0.00000000
