10
Lattice="16.28999089631971 0.0 0.0 0.0 16.28999089631971 0.0 0.0 0.0 34.26581377546328" Properties=species:S:1:pos:R:3:initial_magmoms:R:1 pbc="T T T"
Si       1.35620766      -1.35747828      -1.36525358       0.00000000
Si      -1.36158336       1.35972630      -1.36583610       0.00000000
Si      -1.38168522      -1.34807895       1.37138717       0.00000000
Si       1.35264015       1.37225331       1.39557884       0.00000000
Si       2.70949941      -2.71357191      -0.00877205       0.00000000
Si       2.70920619       2.71841004      -0.00352938       0.00000000
Si      -2.71606428       2.71523349      -0.00798394       0.00000000
Si      -2.72192868      -2.71055826      -0.00346085       0.00000000
Si       2.71254564       0.00117288      -2.72279735       0.00000000
Si      -0.00265527      -2.71407690      -2.72235189       0.00000000
