10
Lattice="16.28999089631971 0.0 0.0 0.0 16.28999089631971 0.0 0.0 0.0 34.26581377546328" Properties=species:S:1:pos:R:3:initial_magmoms:R:1 pbc="T T T"
Si      -1.81978848      -1.24942671       0.69470550       0.00000000
Si       1.00634733       1.86056235       0.96489159       0.00000000
Si      -0.04101822       0.40791789      -2.31167589       0.00000000
Si       1.53321480      -1.75353705       0.39858017       0.00000000
Si      -1.17113697      -3.02039406      -0.78496170       0.00000000
Si       3.28432464      -0.77374242      -0.72677832       0.00000000
Si       2.27911761       0.27588744      -2.59844664       0.00000000
Si      -0.97365330      -1.81231137      -2.90759299       0.00000000
Si       2.07611163       1.15924527       3.00699817       0.00000000
Si      -0.56221677       3.58306695       1.32879473       0.00000000
