10
Lattice="16.28999089631971 0.0 0.0 0.0 16.28999089631971 0.0 0.0 0.0 34.26581377546328" Properties=species:S:1:pos:R:3:initial_magmoms:R:1 pbc="T T T"
Si      -1.00634733      -1.86056235      -0.96489159       0.00000000
Si      -1.56856410       1.72250460       0.36390315       0.00000000
Si       1.84938741       1.06495875      -1.09482763       0.00000000
Si       1.06976430      -0.70131708       2.04210658       0.00000000
Si       1.55996298       2.98392075       0.26956931       0.00000000
Si       3.28082229      -0.75937464      -0.74315738       0.00000000
Si      -1.34100909       1.84160079       2.76278558       0.00000000
Si      -0.59090346       3.54559995      -0.71043351       0.00000000
Si       0.52686747      -3.61409940      -0.56631142       0.00000000
Si      -1.04736555      -1.45264446      -3.27656748       0.00000000
