10
Lattice="16.28999089631971 0.0 0.0 0.0 16.28999089631971 0.0 0.0 0.0 34.26581377546328" Properties=species:S:1:pos:R:3:initial_magmoms:R:1 pbc="T T T"
Si       0.22431330      -1.75339044      -1.45588671       0.00000000
Si       1.18868130       1.79678700      -0.86295074       0.00000000
Si       0.85561596      -0.81163296       2.09970744       0.00000000
Si      -2.18646009       0.78952743      -0.73520771       0.00000000
Si       0.17572023       3.54199986       0.32764989       0.00000000
Si      -0.93354732      -3.47956029      -0.33117928       0.00000000
Si      -2.09598543       2.97242001       0.18990125       0.00000000
Si      -0.98381826      -0.34606476       3.57334385       0.00000000
Si      -0.84545100      -1.05207336      -3.49799329       0.00000000
Si       0.71451198       1.93184739      -3.22842398       0.00000000
