10
Lattice="16.28999089631971 0.0 0.0 0.0 16.28999089631971 0.0 0.0 0.0 34.26581377546328" Properties=species:S:1:pos:R:3:initial_magmoms:R:1 pbc="T T T"
Si      -0.93284685       2.09859020      -0.35797516       0.00000000
Si      -1.89398943      -1.37599254       0.10759472       0.00000000
Si       1.35332433      -1.00607922      -1.64585649       0.00000000
Si       0.98225442      -0.23904109       2.16388735       0.00000000
Si       1.27778760      -3.06572166      -0.46461043       0.00000000
Si      -3.15578839      -0.38738907       1.88472361       0.00000000
Si      -1.00486494      -3.56717673      -0.03159310       0.00000000
Si       0.83523717       3.42163142      -1.17771668       0.00000000
Si      -0.34021665      -1.75812336       3.40040420       0.00000000
Si      -1.53758052       3.07172222       1.81958426       0.00000000
