10
Lattice="16.28999089631971 0.0 0.0 0.0 16.28999089631971 0.0 0.0 0.0 34.26581377546328" Properties=species:S:1:pos:R:3:initial_magmoms:R:1 pbc="T T T"
Si       2.29874706      -0.36072576      -0.28026025       0.00000000
Si      -0.13835097       0.52383753       2.28284020       0.00000000
Si      -0.95415417      -2.15496826       0.01185598       0.00000000
Si      -0.37185183       1.13821488      -2.15672579       0.00000000
Si       0.97624341       3.31983684       0.40317179       0.00000000
Si       2.14798311      -2.17254843      -1.81242270       0.00000000
Si       2.93172759       1.58509845      -1.54442962       0.00000000
Si      -1.99005970      -2.32089641      -2.09158644       0.00000000
Si       1.08955665       2.99716452      -1.98162738       0.00000000
Si       0.82551204      -3.69163070      -0.57590585       0.00000000
