10
Lattice="16.28999089631971 0.0 0.0 0.0 16.28999089631971 0.0 0.0 0.0 34.26581377546328" Properties=species:S:1:pos:R:3:initial_magmoms:R:1 pbc="T T T"
Si       1.77741819       1.24155864      -0.78465331       0.00000000
Si       0.28942443      -1.91896200      -1.36439694       0.00000000
Si       0.47416932      -0.13506039       2.36547324       0.00000000
Si      -2.15086644       0.56167920      -0.98000282       0.00000000
Si      -3.12852708      -1.26141615       0.09433384       0.00000000
Si      -1.55996298      -2.98392075      -0.26956931       0.00000000
Si       0.75652389       3.23498223      -1.59743887       0.00000000
Si       3.45654252       1.20876687       0.80939324       0.00000000
Si       1.35365013      -0.94306068      -3.43514975       0.00000000
Si      -0.71451198      -1.93184739       3.22842398       0.00000000
