10
Lattice="16.28999089631971 0.0 0.0 0.0 16.28999089631971 0.0 0.0 0.0 34.26581377546328" Properties=species:S:1:pos:R:3:initial_magmoms:R:1 pbc="T T T"
Si      -1.83572010      -1.40563152       0.44168659       0.00000000
Si       0.09047466       2.18289258       0.92510896       0.00000000
Si      -0.22755501      -0.11909619      -2.39888243       0.00000000
Si       2.18646009      -0.78952743       0.73520771       0.00000000
Si       3.37514139       1.00725957      -0.12774303       0.00000000
Si       2.41077339      -2.54291787      -0.72067900       0.00000000
Si       1.34100909      -1.84160079      -2.76278558       0.00000000
Si       2.36218032       2.75247243       1.06285761       0.00000000
Si      -2.72168433      -0.64866780       2.58474031       0.00000000
Si      -0.99116505      -3.64286754       0.63988016       0.00000000
