10
Lattice="16.28999089631971 0.0 0.0 0.0 16.28999089631971 0.0 0.0 0.0 34.26581377546328" Properties=species:S:1:pos:R:3:initial_magmoms:R:1 pbc="T T T"
Si      -1.36147096      -1.35527913       1.38849952       0.00000000
Si       1.34842104       1.36386396       1.39384499       0.00000000
Si      -1.48426498       1.33478631      -1.41353757       0.00000000
Si       1.49740938      -1.34793234      -1.49546032       0.00000000
Si      -0.20077425      -2.49663798      -2.61337181       0.00000000
Si       2.70567126       2.70316260       0.03645885       0.00000000
Si       2.71842633      -2.71256193       0.01265095       0.00000000
Si      -2.73003339      -2.70770751       0.00863156       0.00000000
Si      -2.72532419       2.71790505       0.03885745       0.00000000
Si       2.70816363       0.00361638       2.75221114       0.00000000
