10
Lattice="16.28999089631971 0.0 0.0 0.0 16.28999089631971 0.0 0.0 0.0 34.26581377546328" Properties=species:S:1:pos:R:3:initial_magmoms:R:1 pbc="T T T"
Si      -1.24105921       1.38311874       1.45239502       0.00000000
Si      -1.69030483      -0.91944018      -1.47966518       0.00000000
Si       1.11254347       1.80854838      -1.18682831       0.00000000
Si       1.48426498      -1.33478631       1.41353757       0.00000000
Si      -2.51729926       2.67768504      -0.03979291       0.00000000
Si      -0.69844841       3.32803071      -1.44889446       0.00000000
Si      -2.62526938      -2.60913672      -0.03942969       0.00000000
Si      -3.48549541       0.88629003      -1.28585763       0.00000000
Si      -2.59453015       0.02746494       2.81022662       0.00000000
Si       0.12279402      -2.69006544       2.80203709       0.00000000
