10
Lattice="16.28999089631971 0.0 0.0 0.0 16.28999089631971 0.0 0.0 0.0 34.26581377546328" Properties=species:S:1:pos:R:3:initial_magmoms:R:1 pbc="T T T"
Si      -1.99905993      -0.93693564      -0.75737771       0.00000000
Si       0.04836501       2.35664172       0.04331201       0.00000000
Si       1.74636945      -0.54001350      -1.55138559       0.00000000
Si       0.73122552      -0.21432753       2.29680452       0.00000000
Si       2.36934792       2.31611220       0.59399821       0.00000000
Si      -1.16102088      -3.21331653      -0.93394954       0.00000000
Si       2.90465361       0.55193778       2.11598371       0.00000000
Si       3.09309633       1.38368889      -1.42535585       0.00000000
Si      -3.73700745      -0.24392646       0.71197548       0.00000000
Si       2.76726375      -2.53343709      -0.73860003       0.00000000
