10
Lattice="16.28999089631971 0.0 0.0 0.0 16.28999089631971 0.0 0.0 0.0 34.26581377546328" Properties=species:S:1:pos:R:3:initial_magmoms:R:1 pbc="T T T"
Si       1.35733167      -1.35682790      -1.35702978       0.00000000
Si      -1.35830907      -1.35821255       1.35607034       0.00000000
Si       1.35729909       1.35912627       1.35617314       0.00000000
Si      -1.35822762       1.35809512      -1.35716684       0.00000000
Si       2.71284776       0.00239297       2.71457355       0.00000000
Si      -2.71401174       0.00146156      -2.71471061       0.00000000
Si      -2.71156824      -0.00249359       2.71717775       0.00000000
Si       2.71345178      -0.00013663      -2.71563579       0.00000000
Si      -0.00278559       2.71584218       2.71330571       0.00000000
Si       0.00203625      -2.71626098       2.71289452       0.00000000
