10
Lattice="16.28999089631971 0.0 0.0 0.0 16.28999089631971 0.0 0.0 0.0 34.26581377546328" Properties=species:S:1:pos:R:3:initial_magmoms:R:1 pbc="T T T"
Si       1.34661285       1.35076191      -1.37210675       0.00000000
Si      -1.36216980      -1.36757386      -1.36823471       0.00000000
Si      -1.47268116       1.26888837       1.38917113       0.00000000
Si       1.45318203      -1.36529326       1.37498508       0.00000000
Si      -1.96439481      -0.56669326       2.89333840       0.00000000
Si       0.06343326       2.68813833       2.58720745       0.00000000
Si      -0.14975397      -2.48796748       2.78947866       0.00000000
Si       2.70464499       2.69537109      -0.01819516       0.00000000
Si      -0.00667890       2.70685554      -2.72858828       0.00000000
Si       2.70669753      -0.00595400      -2.72923933       0.00000000
