10
Lattice="16.28999089631971 0.0 0.0 0.0 16.28999089631971 0.0 0.0 0.0 34.26581377546328" Properties=species:S:1:pos:R:3:initial_magmoms:R:1 pbc="T T T"
Si      -0.06701706      -0.93221968      -2.07626961       0.00000000
Si      -1.31953887       1.74003264       0.81018135       0.00000000
Si       2.15400131       1.08709686      -0.08847438       0.00000000
Si      -0.61980192      -2.21160275       0.92853554       0.00000000
Si       0.62827502       1.07230554      -3.17174829       0.00000000
Si      -1.83612735      -1.30371802       2.68572172       0.00000000
Si      -1.31769810       1.03454532       3.10033830       0.00000000
Si       1.59629035      -3.04037279       0.82494993       0.00000000
Si       1.60003542      -2.68775945      -1.68402862       0.00000000
Si       1.49280813       2.77283493      -1.76287431       0.00000000
