10
Lattice="16.28999089631971 0.0 0.0 0.0 16.28999089631971 0.0 0.0 0.0 34.26581377546328" Properties=species:S:1:pos:R:3:initial_magmoms:R:1 pbc="T T T"
Si       1.31062728      -1.83597569       0.73750352       0.00000000
Si      -1.36138788      -0.51714397      -1.87526624       0.00000000
Si       0.76102565       2.30050638       0.16961587       0.00000000
Si      -1.93621311       0.31731291       2.59985154       0.00000000
Si       2.92883516       1.62313560       0.67236417       0.00000000
Si      -1.69800444       1.69179795      -2.60516275       0.00000000
Si      -0.34305111      -3.35985227       1.23559167       0.00000000
Si      -2.42362620       2.34934380       1.28794986       0.00000000
Si       0.22475313      -1.08017687      -3.54253887       0.00000000
Si       1.86116901       0.58028238      -3.26426604       0.00000000
