10
Lattice="16.28999089631971 0.0 0.0 0.0 16.28999089631971 0.0 0.0 0.0 34.26581377546328" Properties=species:S:1:pos:R:3:initial_magmoms:R:1 pbc="T T T"
Si       1.35702216      -1.35703845      -1.35672139       0.00000000
Si      -1.35759231       1.35728280      -1.35685845       0.00000000
Si      -1.35633798      -1.35865116       1.35754377       0.00000000
Si       1.35716877       1.35773892       1.35857174       0.00000000
Si      -2.71397916      -0.00057015      -2.71357984       0.00000000
Si       0.00100998       2.71393029      -2.71381970       0.00000000
Si      -0.00304623      -2.71474479       2.71402530       0.00000000
Si       2.71426058       0.00140094      -2.71464208       0.00000000
Si       2.71473578       2.71472850       0.00027413       0.00000000
Si      -0.00169416      -2.71598283      -2.71385397       0.00000000
