10
Lattice="16.28999089631971 0.0 0.0 0.0 16.28999089631971 0.0 0.0 0.0 34.26581377546328" Properties=species:S:1:pos:R:3:initial_magmoms:R:1 pbc="T T T"
Si       1.35756701       1.35698958      -1.35829762       0.00000000
Si       1.35739683      -1.35829278       1.35771510       0.00000000
Si      -1.35716877      -1.35773892      -1.35857174       0.00000000
Si      -1.36050822       1.35949824       1.36069623       0.00000000
Si      -2.71363707       2.71552671      -0.00154196       0.00000000
Si       2.71562023       2.71404432      -0.00003427       0.00000000
Si       0.00045612       2.71414206      -2.71553299       0.00000000
Si      -2.71350675      -2.71639008      -0.00102797       0.00000000
Si      -0.00014661      -2.71477737      -2.71529313       0.00000000
Si       2.71490347      -0.00019548      -2.71519034       0.00000000
