10
Lattice="16.28999089631971 0.0 0.0 0.0 16.28999089631971 0.0 0.0 0.0 34.26581377546328" Properties=species:S:1:pos:R:3:initial_magmoms:R:1 pbc="T T T"
Si       1.34595799       1.35824391      -1.36234099       0.00000000
Si      -1.33381787       1.28241396       1.46054686       0.00000000
Si      -1.37078136      -1.35369900      -1.35959972       0.00000000
Si       1.33778041      -1.42223103       1.37265500       0.00000000
Si      -2.10441780      -0.61362801       2.78666886       0.00000000
Si      -0.39408931      -2.29291524       2.71590992       0.00000000
Si       0.49407244       0.66209076       3.57204175       0.00000000
Si       2.68789561      -2.71666701      -0.02007978       0.00000000
Si       2.70123712       0.00421911      -2.71871972       0.00000000
Si       2.69015992       2.73043206      -0.01607068       0.00000000
