10
Lattice="16.28999089631971 0.0 0.0 0.0 16.28999089631971 0.0 0.0 0.0 34.26581377546328" Properties=species:S:1:pos:R:3:initial_magmoms:R:1 pbc="T T T"
Si      -0.36496116       0.51326532      -2.28080237       0.00000000
Si       0.45377424      -2.30648481       0.50943014       0.00000000
Si      -1.82505015       0.47965905       1.50498965       0.00000000
Si       1.57471734       1.65841974       0.93391528       0.00000000
Si       0.55345275       3.47793129      -0.06753796       0.00000000
Si      -0.37973619       2.85249303      -2.15110619       0.00000000
Si      -0.69375852      -0.08412156       3.52934653       0.00000000
Si       1.83116934       0.05994720      -3.22355823       0.00000000
Si      -1.51073460      -3.46125033      -0.20861039       0.00000000
Si      -2.47537953      -0.56399238      -2.89566848       0.00000000
