10
Lattice="16.28999089631971 0.0 0.0 0.0 16.28999089631971 0.0 0.0 0.0 34.26581377546328" Properties=species:S:1:pos:R:3:initial_magmoms:R:1 pbc="T T T"
Si      -1.25701785      -0.84268170       1.76983027       0.00000000
Si      -0.66738501      -1.55706336      -1.68875731       0.00000000
Si       2.37044654      -0.14159268       0.28999174       0.00000000
Si      -0.59872266       2.31839280      -0.10451079       0.00000000
Si      -0.03722265      -0.30691989      -3.49347020       0.00000000
Si       3.09685022       0.26479395      -1.91624817       0.00000000
Si      -1.24224282      -3.18190941       1.64013409       0.00000000
Si       0.95388768      -3.63522753       0.69737823       0.00000000
Si      -3.50637363      -0.18350685       1.60309273       0.00000000
Si       2.84244929      -2.26937619       1.32869194       0.00000000
