10
Lattice="16.28999089631971 0.0 0.0 0.0 16.28999089631971 0.0 0.0 0.0 34.26581377546328" Properties=species:S:1:pos:R:3:initial_magmoms:R:1 pbc="T T T"
Si       1.83632283      -0.94319100      -1.18429572       0.00000000
Si      -1.11148299       0.89156799      -1.95287835       0.00000000
Si      -1.56004443      -1.74268791       0.75360846       0.00000000
Si       0.12131163       1.44858825       2.11324245       0.00000000
Si       0.16601139       2.80103292       0.22272791       0.00000000
Si       3.23020993       0.91857681      -0.74634411       0.00000000
Si       1.85271057       2.69842221      -1.37772634       0.00000000
Si       0.90313389      -1.56862926      -3.26786395       0.00000000
Si      -1.34622189      -0.90945441      -3.43460150       0.00000000
Si      -1.15246863       0.14566518       3.72051702       0.00000000
