10
Lattice="16.28999089631971 0.0 0.0 0.0 16.28999089631971 0.0 0.0 0.0 34.26581377546328" Properties=species:S:1:pos:R:3:initial_magmoms:R:1 pbc="T T T"
Si      -0.95273531      -0.05761773       2.15096913       0.00000000
Si      -0.59940521       2.17214118      -0.80887925       0.00000000
Si       2.46607794      -0.93846690      -0.89238509       0.00000000
Si      -1.82789031       0.62032320      -2.11149489       0.00000000
Si      -2.59849025      -1.27571877      -0.78537289       0.00000000
Si       0.84370797      -2.08432179      -2.19938675       0.00000000
Si      -0.88816175      -2.95500600      -0.85613184       0.00000000
Si       1.81693773       2.22558867       2.02490513       0.00000000
Si       1.20143637      -1.59174477       2.99058483       0.00000000
Si      -2.77078958      -1.84336011       1.52082046       0.00000000
