10
Lattice="16.28999089631971 0.0 0.0 0.0 16.28999089631971 0.0 0.0 0.0 34.26581377546328" Properties=species:S:1:pos:R:3:initial_magmoms:R:1 pbc="T T T"
Si      -1.35448092       1.35485559       1.35637873       0.00000000
Si      -1.35703845      -1.35772263      -1.35658433       0.00000000
Si       1.35847071       1.35674523      -1.35665286       0.00000000
Si       1.35879777      -1.35645201       1.36168993       0.00000000
Si       0.00871515       2.69161299       2.71536166       0.00000000
Si      -2.71028133       0.00223173       2.71100990       0.00000000
Si      -2.71482624       2.71290402      -0.00044546       0.00000000
Si      -2.71272483      -2.71502172      -0.00020559       0.00000000
Si       0.00081450       2.71428867      -2.71354558       0.00000000
Si      -2.71432125      -0.00017919      -2.71392250       0.00000000
