10
Lattice="16.28999089631971 0.0 0.0 0.0 16.28999089631971 0.0 0.0 0.0 34.26581377546328" Properties=species:S:1:pos:R:3:initial_magmoms:R:1 pbc="T T T"
Si      -0.35194545      -2.26931103      -0.16468159       0.00000000
Si       1.98084186       0.50845977       1.12888787       0.00000000
Si      -1.89367992       0.84885561       1.09585560       0.00000000
Si       0.32071752       0.59684931      -2.25465754       0.00000000
Si      -0.91344546       0.35600166       3.22427781       0.00000000
Si      -1.70523720       1.68060672      -2.44548396       0.00000000
Si       0.96231613       1.74127068       2.84193965       0.00000000
Si       1.86955510      -2.90416491      -0.42438234       0.00000000
Si      -2.03106978      -2.23651926      -1.75872814       0.00000000
Si       2.78212742      -1.69759719       1.41254043       0.00000000
