10
Lattice="16.28999089631971 0.0 0.0 0.0 16.28999089631971 0.0 0.0 0.0 34.26581377546328" Properties=species:S:1:pos:R:3:initial_magmoms:R:1 pbc="T T T"
Si       0.13886003      -0.18932238       2.34467388       0.00000000
Si       1.97231256       0.38372724      -1.25813859       0.00000000
Si      -0.51216397      -2.16917640      -0.81624641       0.00000000
Si      -1.48241266       1.88884179      -0.04146166       0.00000000
Si       1.36925025       2.50413138      -2.10587529       0.00000000
Si       0.94143249      -2.35934586       2.57096544       0.00000000
Si      -0.27639880      -3.58526610       1.02482253       0.00000000
Si      -0.85225030       3.13898526      -1.84617455       0.00000000
Si       2.02742163       1.17652896       2.97598759       0.00000000
Si      -2.05727047       0.26399574       3.28742974       0.00000000
