10
Lattice="16.28999089631971 0.0 0.0 0.0 16.28999089631971 0.0 0.0 0.0 34.26581377546328" Properties=species:S:1:pos:R:3:initial_magmoms:R:1 pbc="T T T"
Si       1.35540130      -1.35216774       1.36042210       0.00000000
Si      -1.36400961      -1.35252612      -1.35443928       0.00000000
Si      -1.36043387       1.36358703       1.35908573       0.00000000
Si       1.37734393       1.36519974      -1.37142828       0.00000000
Si      -0.15071182       2.50879032      -2.79019139       0.00000000
Si       2.70973561      -2.70656721       0.00054825       0.00000000
Si      -2.71748055      -2.70817992       0.00339232       0.00000000
Si      -0.00238160      -2.70938538       2.71690363       0.00000000
Si       2.71287958       0.00522909       2.71697216       0.00000000
Si      -2.71682895       0.00495216       2.71656097       0.00000000
