10
Lattice="16.28999089631971 0.0 0.0 0.0 16.28999089631971 0.0 0.0 0.0 34.26581377546328" Properties=species:S:1:pos:R:3:initial_magmoms:R:1 pbc="T T T"
Si      -1.36568844       1.33024140       1.32434018       0.00000000
Si       1.36467846      -1.33514469       1.35192417       0.00000000
Si       1.37049399       1.34718300      -1.34263813       0.00000000
Si      -1.34420193      -1.37218815      -1.34627031       0.00000000
Si       0.02396259       2.56841172       2.68428255       0.00000000
Si      -2.70271788      -0.01179396      -2.70127841       0.00000000
Si       0.01146816       2.70337437      -2.70114134       0.00000000
Si      -2.69015992      -2.73043206       0.01607068       0.00000000
Si       0.01107720      -2.72621295      -2.70264904       0.00000000
Si       2.72785824      -0.01221750      -2.70268331       0.00000000
