10
Lattice="16.28999089631971 0.0 0.0 0.0 16.28999089631971 0.0 0.0 0.0 34.26581377546328" Properties=species:S:1:pos:R:3:initial_magmoms:R:1 pbc="T T T"
Si       1.86955443       1.04488947       0.81706879       0.00000000
Si       0.91202823       0.19862397      -2.12359073       0.00000000
Si      -2.15965164       0.68181795       0.64330675       0.00000000
Si       0.50891589      -2.21254038       0.80514428       0.00000000
Si       3.00802995      -0.87461010       1.61933473       0.00000000
Si      -1.90742705      -2.26598787      -2.02864011       0.00000000
Si      -3.43903796      -0.88387911      -0.73089022       0.00000000
Si      -0.47762280      -1.03954635      -3.48353311       0.00000000
Si       1.19723355       2.38278717       2.61475718       0.00000000
Si      -2.09270137       3.08364813       0.51193154       0.00000000
