10
Lattice="16.28999089631971 0.0 0.0 0.0 16.28999089631971 0.0 0.0 0.0 34.26581377546328" Properties=species:S:1:pos:R:3:initial_magmoms:R:1 pbc="T T T"
Si       2.02326361      -0.51636042       1.12696898       0.00000000
Si      -0.27615852       2.03802561       1.30463732       0.00000000
Si      -1.20476997      -2.08445211       0.42421101       0.00000000
Si       0.77914255       0.61709778      -2.25023725       0.00000000
Si      -2.62794582      -0.79534296       1.80056672       0.00000000
Si      -0.94882149      -0.82813473       3.39461327       0.00000000
Si      -1.06091298      -2.76314238      -2.15309361       0.00000000
Si       1.27267906      -1.46298861       3.13491252       0.00000000
Si      -0.50024376      -0.94859928      -3.62443421       0.00000000
Si      -0.59687604       1.44117630       3.55929486       0.00000000
