10
Lattice="16.28999089631971 0.0 0.0 0.0 16.28999089631971 0.0 0.0 0.0 34.26581377546328" Properties=species:S:1:pos:R:3:initial_magmoms:R:1 pbc="T T T"
Si      -2.22150055       0.63485388       0.25970075       0.00000000
Si       0.75058456       0.94662819      -2.00794354       0.00000000
Si       0.60306232      -2.12040414       0.84773671       0.00000000
Si       0.91257232       1.20656772       1.83692277       0.00000000
Si      -1.86955510       2.90416491       0.42438234       0.00000000
Si      -1.36925025      -2.50413138       2.10587529       0.00000000
Si       2.16032116      -0.80778852      -2.71135256       0.00000000
Si      -2.85166291      -0.61528959       2.06441364       0.00000000
Si       3.17885341       0.60608574       1.66531948       0.00000000
Si      -1.27267906       1.46298861      -3.13491252       0.00000000
