10
Lattice="16.28999089631971 0.0 0.0 0.0 16.28999089631971 0.0 0.0 0.0 34.26581377546328" Properties=species:S:1:pos:R:3:initial_magmoms:R:1 pbc="T T T"
Si       1.35045729       1.35277277       1.37170241       0.00000000
Si      -1.38686218       1.30202779      -1.38741672       0.00000000
Si      -1.36489186      -1.35870003       1.36981779       0.00000000
Si       1.06808643      -1.58060241      -1.44553500       0.00000000
Si      -2.16219939      -0.50117814      -2.80069185       0.00000000
Si      -0.74145564      -2.44035603      -2.69988177       0.00000000
Si       2.69651628      -2.72691342      -0.02252979       0.00000000
Si       2.71562445       2.71201526      -0.00962870       0.00000000
Si       2.70602964      -0.00145506       2.72982870       0.00000000
Si      -0.00956223       2.71255283       2.72945177       0.00000000
