10
Lattice="16.28999089631971 0.0 0.0 0.0 16.28999089631971 0.0 0.0 0.0 34.26581377546328" Properties=species:S:1:pos:R:3:initial_magmoms:R:1 pbc="T T T"
Si       1.34056926       1.35945281      -1.38341447       0.00000000
Si      -1.37754756      -1.35167904      -1.38348300       0.00000000
Si      -1.31362560       1.39578961       1.44070695       0.00000000
Si       1.42941492      -1.33784883       1.53308763       0.00000000
Si       2.70141957      -2.71197549       0.00164476       0.00000000
Si      -2.70483558       2.71649012      -0.03008540       0.00000000
Si       2.69860140       2.72485178       0.01377486       0.00000000
Si       2.69798238       0.00322542      -2.74623518       0.00000000
Si      -2.75023256      -2.69602758      -0.01219864       0.00000000
Si      -0.01726740      -2.71166598      -2.74503588       0.00000000
