10
Lattice="16.28999089631971 0.0 0.0 0.0 16.28999089631971 0.0 0.0 0.0 34.49183129400761" Properties=species:S:1:pos:R:3:initial_magmoms:R:1 pbc="T T T"
Si       1.33951041       1.35678910       1.38380960       0.00000000
Si      -1.37200407      -1.35773319       1.37980854       0.00000000
Si      -1.45617776       1.23720095      -1.41188251       0.00000000
Si       1.53526734      -1.28200098      -1.57698120       0.00000000
Si      -2.17708194      -0.66570141      -2.52266807       0.00000000
Si      -0.35026758      -2.25830955      -2.92323749       0.00000000
Si       0.00360009       2.21934623      -3.00901873       0.00000000
Si       2.69897607       2.70809510      -0.00850224       0.00000000
Si       2.70329292      -2.71332183      -0.01265161       0.00000000
Si       2.69521308       0.00322748       2.74216765       0.00000000
