10
Lattice="16.28999089631971 0.0 0.0 0.0 16.28999089631971 0.0 0.0 0.0 34.49183129400761" Properties=species:S:1:pos:R:3:initial_magmoms:R:1 pbc="T T T"
Si      -1.35553651       1.35542574      -1.35897891       0.00000000
Si       1.35920502      -1.35904375      -1.35856501       0.00000000
Si       1.36054080       1.36213722       1.36422167       0.00000000
Si      -1.37306292      -1.35799630       1.35639202       0.00000000
Si      -0.00557118      -2.67851550       2.71419821       0.00000000
Si      -2.71211884       2.70990666       0.00200053       0.00000000
Si       2.71852407       2.70873378      -0.00220748       0.00000000
Si       0.00144981       2.71233387      -2.71592281       0.00000000
Si      -2.71359514      -0.00296478      -2.71588831       0.00000000
Si       2.71391400      -2.71631297       0.00037941       0.00000000
