10
Lattice="16.28999089631971 0.0 0.0 0.0 16.28999089631971 0.0 0.0 0.0 34.49183129400761" Properties=species:S:1:pos:R:3:initial_magmoms:R:1 pbc="T T T"
Si       2.20247316       0.45973638      -0.64254868       0.00000000
Si      -0.72716931       0.28419534       2.20927201       0.00000000
Si      -0.22058289      -2.33421039      -0.32470628       0.00000000
Si      -1.43620785       1.14864930      -1.50577623       0.00000000
Si      -2.24355654      -1.52888166       2.18405847       0.00000000
Si       2.23922340      -0.88047450      -2.60203072       0.00000000
Si      -0.46201698      -3.05906652       1.87090696       0.00000000
Si       1.62411300      -2.95463133      -1.55271964       0.00000000
Si      -3.61254533       0.79186572      -0.68459425       0.00000000
Si      -1.29319794       0.09531279      -3.61246948       0.00000000
