10
Lattice="16.28999089631971 0.0 0.0 0.0 16.28999089631971 0.0 0.0 0.0 34.49183129400761" Properties=species:S:1:pos:R:3:initial_magmoms:R:1 pbc="T T T"
Si       1.51638723       1.81307700       0.02521354       0.00000000
Si      -1.50197547      -1.11734739       1.44845077       0.00000000
Si       1.78153956      -1.53018486      -0.31315151       0.00000000
Si      -1.32197911       0.09679518      -2.05216163       0.00000000
Si       2.02297365      -0.80532873      -2.50876475       0.00000000
Si       2.24355654       1.52888166      -2.18405847       0.00000000
Si      -1.64335214      -3.18673125       0.19756932       0.00000000
Si       0.69100551      -3.53370825       0.04918538       0.00000000
Si       0.16299774       3.55860004       0.59970981       0.00000000
Si      -0.92560106       2.62978008       2.44750722       0.00000000
