10
Lattice="16.28999089631971 0.0 0.0 0.0 16.28999089631971 0.0 0.0 0.0 34.49183129400761" Properties=species:S:1:pos:R:3:initial_magmoms:R:1 pbc="T T T"
Si       1.82241117       0.25115922      -1.50908745       0.00000000
Si       0.14335200      -2.08608111       1.17493040       0.00000000
Si      -1.92253277       1.13463501      -1.04724157       0.00000000
Si       1.28218590       1.32307284       2.14066772       0.00000000
Si       0.51945552       0.31793193      -3.46953525       0.00000000
Si      -0.83393397       2.06345497      -2.89503899       0.00000000
Si      -1.23256493      -3.56568552      -0.22681841       0.00000000
Si       3.12306993       2.10346810      -0.75288811       0.00000000
Si      -0.99693171      -1.49514507      -3.49474879       0.00000000
Si      -2.70800792       2.92246577       0.30159674       0.00000000
