10
Lattice="16.28999089631971 0.0 0.0 0.0 16.28999089631971 0.0 0.0 0.0 34.49183129400761" Properties=species:S:1:pos:R:3:initial_magmoms:R:1 pbc="T T T"
Si      -1.35412254       1.35275418       1.35701288       0.00000000
Si       1.35822762       1.35624024      -1.35666796       0.00000000
Si      -1.35638685      -1.35830907      -1.35690940       0.00000000
Si       1.35596331      -1.35886293       1.36156580       0.00000000
Si      -2.71191033       2.71498914       0.00041390       0.00000000
Si       0.00066789       2.71388142      -2.71409474       0.00000000
Si      -2.71412577      -0.00086337      -2.71385329       0.00000000
Si      -2.71344159      -2.71502335       0.00065535       0.00000000
Si       2.71581993      -0.00133578      -2.71426720       0.00000000
Si       0.00087966      -2.71596980      -2.71430169       0.00000000
