10
Lattice="16.28999089631971 0.0 0.0 0.0 16.28999089631971 0.0 0.0 0.0 34.49183129400761" Properties=species:S:1:pos:R:3:initial_magmoms:R:1 pbc="T T T"
Si      -1.32887304       1.25996634      -1.47928649       0.00000000
Si      -1.88120178      -0.96339060       1.15744303       0.00000000
Si       1.38535047      -1.46186134      -1.45369353       0.00000000
Si       1.08424611       1.80667503       1.35404658       0.00000000
Si      -0.81521676      -1.55430546       3.20618997       0.00000000
Si      -2.59937901       2.63697633      -0.00134518       0.00000000
Si       0.02911023       2.60656290      -2.84571564       0.00000000
Si      -2.69498502      -2.78068638      -0.12930995       0.00000000
Si      -0.82227033       3.46248837       1.54192369       0.00000000
Si       2.92485321       2.59600698       0.05867064       0.00000000
