10
Lattice="16.28999089631971 0.0 0.0 0.0 16.28999089631971 0.0 0.0 0.0 34.49183129400761" Properties=species:S:1:pos:R:3:initial_magmoms:R:1 pbc="T T T"
Si      -2.24802000      -0.44113320       0.32177447       0.00000000
Si       0.77763573      -0.07910424       2.20640919       0.00000000
Si       0.46406952       2.14022907      -0.95518282       0.00000000
Si       1.00126485      -1.75118477      -1.28658052       0.00000000
Si      -0.64827684       1.41656211      -3.06008249       0.00000000
Si      -2.49803892       0.86371209       2.29305272       0.00000000
Si       2.32673328      -1.82230691       2.02970744       0.00000000
Si      -3.15900567       0.42676542      -1.68258145       0.00000000
Si       2.80841229       1.82806380      -1.34211240       0.00000000
Si       2.67584427      -0.47993598      -2.38621521       0.00000000
