10
Lattice="16.28999089631971 0.0 0.0 0.0 16.28999089631971 0.0 0.0 0.0 34.49183129400761" Properties=species:S:1:pos:R:3:initial_magmoms:R:1 pbc="T T T"
Si       0.91098567      -0.86789862       2.00435593       0.00000000
Si      -2.26619964      -0.10016721       0.78313747       0.00000000
Si       0.01402569       2.28729519      -0.80862694       0.00000000
Si       0.17725149      -1.63849218      -1.79692194       0.00000000
Si       2.51072883       0.98979669      -1.37750104       0.00000000
Si       3.15900567      -0.42676542       1.68258145       0.00000000
Si      -2.64614760      -2.41898518       0.67569535       0.00000000
Si      -1.23637842      -3.36570038      -1.01402591       0.00000000
Si       0.49713822      -3.24409553       2.00608052       0.00000000
Si      -3.77668826      -0.16360047      -1.24860499       0.00000000
