10
Lattice="16.28999089631971 0.0 0.0 0.0 16.28999089631971 0.0 0.0 0.0 34.49183129400761" Properties=species:S:1:pos:R:3:initial_magmoms:R:1 pbc="T T T"
Si      -0.41870187      -2.30986403       0.15448900       0.00000000
Si       1.79328465       0.20849571      -1.54492448       0.00000000
Si      -1.48239000       1.15131204      -1.45828095       0.00000000
Si       0.14718015       1.17634977       2.12428409       0.00000000
Si       2.71202436       2.13193746      -0.57301311       0.00000000
Si      -1.23237108      -0.15353325      -3.42955919       0.00000000
Si      -0.59561127       3.30880851       1.58921202       0.00000000
Si      -3.67137504       0.69779844      -0.71349842       0.00000000
Si       0.96549201       3.74696064      -0.13255218       0.00000000
Si       1.30634397      -3.43042055       1.27585355       0.00000000
