10
Lattice="16.28999089631971 0.0 0.0 0.0 16.28999089631971 0.0 0.0 0.0 34.49183129400761" Properties=species:S:1:pos:R:3:initial_magmoms:R:1 pbc="T T T"
Si      -1.24901946       1.41903819       1.47752050       0.00000000
Si      -1.18322415      -1.58026032      -1.38984709       0.00000000
Si       1.19267235       1.32344847      -1.64253439       0.00000000
Si       1.45567440      -1.29143862       1.48312888       0.00000000
Si      -2.59765227       0.05745483       2.85397644       0.00000000
Si      -2.55472812       2.90691792       0.04310791       0.00000000
Si       2.73313620      -2.76534153       0.16691986       0.00000000
Si      -0.51031683       2.34530388      -3.07532586       0.00000000
Si       0.11569158      -2.65624740       2.85697723       0.00000000
Si      -2.70629028      -2.82882366      -0.01902226       0.00000000
