10
Lattice="16.28999089631971 0.0 0.0 0.0 16.28999089631971 0.0 0.0 0.0 34.49183129400761" Properties=species:S:1:pos:R:3:initial_magmoms:R:1 pbc="T T T"
Si       1.27746180      -1.47390291      -1.31620902       0.00000000
Si      -1.33998282      -1.36480878       1.37384835       0.00000000
Si       1.37945349       1.34618931       1.37112349       0.00000000
Si      -1.45567440       1.29143862      -1.48312888       0.00000000
Si      -2.70469386       2.71047681      -0.00560837       0.00000000
Si      -2.69337231      -2.73315249      -0.01718729       0.00000000
Si      -2.69597871      -0.00904095       2.73324116       0.00000000
Si       0.01858689       2.70583416       2.73306870       0.00000000
Si       2.72652246       2.71717200      -0.01048552       0.00000000
Si       2.71634121      -2.73619872       0.03430559       0.00000000
