10
Lattice="16.28999089631971 0.0 0.0 0.0 16.28999089631971 0.0 0.0 0.0 34.49183129400761" Properties=species:S:1:pos:R:3:initial_magmoms:R:1 pbc="T T T"
Si       1.84060710       0.78933195      -1.29537594       0.00000000
Si       0.43401447      -0.73269162       2.27156429       0.00000000
Si      -1.08424611      -1.80667503      -1.35404658       0.00000000
Si      -1.90651644       1.65581334       0.18787711       0.00000000
Si      -2.06268867       0.56480688       2.84043839       0.00000000
Si       0.32021253       2.15283753      -2.81991574       0.00000000
Si       1.76562423      -2.67221160       1.58441765       0.00000000
Si      -2.41311915      -0.54670869      -2.83333307       0.00000000
Si      -1.15152381       3.34998963      -1.39229804       0.00000000
Si      -3.68362512       0.83030130      -1.35539176       0.00000000
