10
Lattice="16.28999089631971 0.0 0.0 0.0 16.28999089631971 0.0 0.0 0.0 34.49183129400761" Properties=species:S:1:pos:R:3:initial_magmoms:R:1 pbc="T T T"
Si       0.75499263       1.69417629      -1.58017515       0.00000000
Si      -1.77710868      -0.82551204      -1.54326887       0.00000000
Si       1.90651644      -1.65581334      -0.18787711       0.00000000
Si      -0.15617223      -1.09100646       2.65256128       0.00000000
Si      -1.66298094       2.06223255       1.86407757       0.00000000
Si      -0.50660271      -2.20252203      -3.02121018       0.00000000
Si       2.22672897       0.49702419      -3.00779285       0.00000000
Si       2.44530819       2.85529491      -0.48664552       0.00000000
Si       0.82227033      -3.46248837      -1.54192369       0.00000000
Si      -2.98224288      -2.49885342      -0.20432972       0.00000000
