10
Lattice="16.28999089631971 0.0 0.0 0.0 16.28999089631971 0.0 0.0 0.0 34.49183129400761" Properties=species:S:1:pos:R:3:initial_magmoms:R:1 pbc="T T T"
Si       1.35698958      -1.35293337      -1.36084147       0.00000000
Si      -1.36073628       1.36060596      -1.35780619       0.00000000
Si      -1.34913780      -1.36295172       1.36918850       0.00000000
Si       1.34726445       1.37534841       1.37239624       0.00000000
Si      -2.56681530       0.14209767       2.70457499       0.00000000
Si       2.71230129      -2.71052568      -0.00172459       0.00000000
Si      -0.00260640      -2.71104696      -2.71626772       0.00000000
Si       2.71236645       0.00400734      -2.71647468       0.00000000
Si       2.71174743       2.71870326      -0.00079331       0.00000000
Si      -2.71966437      -2.71081890       0.00137967       0.00000000
