10
Lattice="16.28999089631971 0.0 0.0 0.0 16.28999089631971 0.0 0.0 0.0 34.49183129400761" Properties=species:S:1:pos:R:3:initial_magmoms:R:1 pbc="T T T"
Si      -0.38600784      -2.31874955       0.00475988       0.00000000
Si       2.18898504       0.45351360      -0.74478253       0.00000000
Si      -1.29275811       0.95589720      -1.73859622       0.00000000
Si      -0.48930273       1.02627000       2.07809950       0.00000000
Si       0.74813454       2.96639271       1.80630372       0.00000000
Si       2.43900396      -0.85133169      -2.71606077       0.00000000
Si      -0.68895297       3.30173865      -1.69720600       0.00000000
Si      -2.56234532      -2.67553313       0.82594185       0.00000000
Si       3.67137504      -0.69779844       0.71349842       0.00000000
Si      -3.59372780       0.63193797      -1.09384006       0.00000000
