10
Lattice="16.28999089631971 0.0 0.0 0.0 16.28999089631971 0.0 0.0 0.0 34.49183129400761" Properties=species:S:1:pos:R:3:initial_magmoms:R:1 pbc="T T T"
Si       1.70298918      -1.02185541       1.43279147       0.00000000
Si      -0.68887152       1.92568977       1.38402000       0.00000000
Si       0.30154419      -0.08837325      -2.45481950       0.00000000
Si      -2.35577835      -0.91382013      -0.22519729       0.00000000
Si      -1.01731050       1.91215278      -2.77131672       0.00000000
Si      -1.58790033      -3.15024165      -0.29366362       0.00000000
Si       2.72251512      -2.26549917      -0.54945518       0.00000000
Si      -1.11617451       3.34394604      -0.83032232       0.00000000
Si      -2.04441129       0.56161404       3.11843377       0.00000000
Si       0.51031683      -2.34530388       3.07532586       0.00000000
