10
Lattice="16.28999089631971 0.0 0.0 0.0 16.28999089631971 0.0 0.0 0.0 34.49183129400761" Properties=species:S:1:pos:R:3:initial_magmoms:R:1 pbc="T T T"
Si       0.68887152      -1.92568977      -1.38402000       0.00000000
Si       1.44893034       1.24235685       1.62667848       0.00000000
Si      -1.35553977      -1.36407573       1.73441378       0.00000000
Si      -0.42730299       1.41825627      -2.21434231       0.00000000
Si      -1.66690683      -2.83950990      -1.60921729       0.00000000
Si       2.39186070      -2.94754518       0.04877148       0.00000000
Si      -2.95992558      -2.36159388       0.36795906       0.00000000
Si       3.22670691       2.36143098       0.39879478       0.00000000
Si      -0.03419271       2.57298921       3.15309808       0.00000000
Si       2.66708025      -0.13830210       3.17080965       0.00000000
