10
Lattice="16.28999089631971 0.0 0.0 0.0 16.28999089631971 0.0 0.0 0.0 34.49183129400761" Properties=species:S:1:pos:R:3:initial_magmoms:R:1 pbc="T T T"
Si       0.05245380       2.32873695      -0.28997299       0.00000000
Si       2.04349905      -0.47242629       1.15696014       0.00000000
Si      -2.31386418      -0.36186606       0.97001431       0.00000000
Si       1.35511623      -0.57860451      -2.77993968       0.00000000
Si      -0.22305897       3.22496388       1.88232376       0.00000000
Si      -2.66163939       1.16199828      -2.36852089       0.00000000
Si      -1.98943254      -2.40764571       2.07389150       0.00000000
Si      -1.95657561       3.10335903      -1.13778267       0.00000000
Si       1.75923855      -2.60444520       2.20851319       0.00000000
Si      -3.80495956      -0.38556801      -0.92883104       0.00000000
