10
Lattice="16.28999089631971 0.0 0.0 0.0 16.28999089631971 0.0 0.0 0.0 34.49183129400761" Properties=species:S:1:pos:R:3:initial_magmoms:R:1 pbc="T T T"
Si      -1.81882737       1.44265869       0.15345424       0.00000000
Si       0.71571744      -0.82479528       2.10793496       0.00000000
Si       1.74824280       1.05684633      -1.25471005       0.00000000
Si      -0.79522893      -2.06078274      -0.96501300       0.00000000
Si       2.52666045      -1.96600752       1.02433898       0.00000000
Si      -0.51816861       3.29496757       0.90965358       0.00000000
Si       3.47765436      -0.35577360      -0.47622898       0.00000000
Si      -1.28332620      -2.06505072       2.84481885       0.00000000
Si      -1.18446219      -3.49684398       0.90382445       0.00000000
Si       1.53290529       0.56441592      -3.53744970       0.00000000
