10
Lattice="16.28999089631971 0.0 0.0 0.0 16.28999089631971 0.0 0.0 0.0 34.49183129400761" Properties=species:S:1:pos:R:3:initial_magmoms:R:1 pbc="T T T"
Si       1.23743727       1.94012271      -0.27179578       0.00000000
Si       0.48930273      -1.02627000      -2.07809950       0.00000000
Si       0.75106674      -0.55239390       2.19257796       0.00000000
Si      -2.33659085      -0.18283896       0.48819765       0.00000000
Si      -0.54105606      -2.46395047       2.21620487       0.00000000
Si      -2.36065574      -2.51179745       0.74874909       0.00000000
Si      -0.10494018       3.42761148       0.99357225       0.00000000
Si      -0.80345538      -0.07037280      -3.81669572       0.00000000
Si      -3.63992624       0.77921586      -1.18489854       0.00000000
Si       3.56506650       1.58474007       0.22461093       0.00000000
