10
Lattice="16.28999089631971 0.0 0.0 0.0 16.28999089631971 0.0 0.0 0.0 34.49183129400761" Properties=species:S:1:pos:R:3:initial_magmoms:R:1 pbc="T T T"
Si       1.67457942       1.27124879      -1.09963469       0.00000000
Si      -1.00126485       1.75118477       1.28658052       0.00000000
Si       1.09644732      -1.56468449       1.47159480       0.00000000
Si      -1.69782525      -0.71907693      -1.85214339       0.00000000
Si      -0.31793193       1.22822690      -2.46064862       0.00000000
Si       1.32546843      -0.07112214       3.31628796       0.00000000
Si      -3.24928485       1.31005157       1.60835499       0.00000000
Si      -0.22362912       1.67208053       3.49298971       0.00000000
Si       3.52815336      -0.24040945      -1.59528258       0.00000000
Si      -0.44460297      -3.10426868       2.35141293       0.00000000
