10
Lattice="16.28999089631971 0.0 0.0 0.0 16.28999089631971 0.0 0.0 0.0 34.49183129400761" Properties=species:S:1:pos:R:3:initial_magmoms:R:1 pbc="T T T"
Si      -0.91873971      -1.92344175      -0.97191137       0.00000000
Si       1.46487825       1.38491064      -1.22070108       0.00000000
Si       1.18912113      -0.98184717       1.85738615       0.00000000
Si      -1.74653235       1.61502318       0.44046093       0.00000000
Si       2.48158602       1.95642900       0.85443212       0.00000000
Si      -2.71202436      -2.13193746       0.57301311       0.00000000
Si       2.53889424      -0.25438464      -2.57764498       0.00000000
Si      -0.39156273      -0.83360817       3.57052739       0.00000000
Si       2.56376907      -2.34466857      -1.37770799       0.00000000
Si      -3.38727744       1.32773274      -1.22063210       0.00000000
