10
Lattice="16.28999089631971 0.0 0.0 0.0 16.28999089631971 0.0 0.0 0.0 34.49183129400761" Properties=species:S:1:pos:R:3:initial_magmoms:R:1 pbc="T T T"
Si       1.59257556       1.59537744       0.71242917       0.00000000
Si      -1.92810069       0.50863896      -1.32014109       0.00000000
Si      -1.37665161      -0.45884043       1.91936801       0.00000000
Si       1.51969410      -1.43791830      -1.20911182       0.00000000
Si      -2.70842427      -1.77932412      -1.62308301       0.00000000
Si       3.34006902      -0.11789073      -1.79881899       0.00000000
Si       3.10438530       2.05856730      -1.00967994       0.00000000
Si       0.55853523       3.40975764       1.73335346       0.00000000
Si       0.50298633      -2.00943666      -3.28424503       0.00000000
Si      -3.66477759      -0.41479227       1.40499104       0.00000000
