10
Lattice="16.28999089631971 0.0 0.0 0.0 16.28999089631971 0.0 0.0 0.0 34.49183129400761" Properties=species:S:1:pos:R:3:initial_magmoms:R:1 pbc="T T T"
Si       0.51771249      -0.56482317       2.27370279       0.00000000
Si      -2.33940690      -0.04505814      -0.61388596       0.00000000
Si       0.78644862       2.15993997       0.76633994       0.00000000
Si       1.56763557      -1.10706840      -1.49518723       0.00000000
Si       1.87802523       1.33701804       2.80791257       0.00000000
Si      -1.16895411       2.93930244       1.84728004       0.00000000
Si       1.68145380      -3.33736488      -0.53469267       0.00000000
Si      -1.46689821      -0.27517068       3.49402446       0.00000000
Si      -2.86187607       1.94201235      -1.67523469       0.00000000
Si      -2.83867911      -1.82710269      -2.08761926       0.00000000
