10
Lattice="16.28999089631971 0.0 0.0 0.0 16.28999089631971 0.0 0.0 0.0 34.49183129400761" Properties=species:S:1:pos:R:3:initial_magmoms:R:1 pbc="T T T"
Si       1.36344042      -1.77039720       0.64016875       0.00000000
Si       1.66138452       1.44407592      -1.00657568       0.00000000
Si      -1.01362896      -1.59246153      -1.59886973       0.00000000
Si      -1.01952594       1.24364376       1.98224665       0.00000000
Si      -0.12362481       1.90404036      -2.64438671       0.00000000
Si      -2.72251512       2.26549917       0.54945518       0.00000000
Si      -2.02434201      -2.94417315       0.62837253       0.00000000
Si      -2.42097093       2.17712592      -1.90536432       0.00000000
Si       0.49093173      -1.54028466      -3.46774167       0.00000000
Si       3.34805112      -2.06004969      -0.58015293       0.00000000
