10
Lattice="16.28999089631971 0.0 0.0 0.0 16.28999089631971 0.0 0.0 0.0 34.49183129400761" Properties=species:S:1:pos:R:3:initial_magmoms:R:1 pbc="T T T"
Si      -0.83515572      -2.23765956       0.01365877       0.00000000
Si       1.90948122       0.55755783       1.34304368       0.00000000
Si      -1.89475506       1.44358722       0.53921110       0.00000000
Si       0.14250492       0.35456814      -2.90400687       0.00000000
Si       1.95343164       2.90074794       1.18907206       0.00000000
Si       1.48913406      -0.67846221       3.31204546       0.00000000
Si      -2.60376102      -2.14614234      -1.55882469       0.00000000
Si      -3.43580535      -0.09599697       1.41902922       0.00000000
Si       0.53695098       2.76786226      -2.52766629       0.00000000
Si       2.13965892      -1.57783311      -2.81843259       0.00000000
