10
Lattice="16.28999089631971 0.0 0.0 0.0 16.28999089631971 0.0 0.0 0.0 34.49183129400761" Properties=species:S:1:pos:R:3:initial_magmoms:R:1 pbc="T T T"
Si       1.11514824      -1.76169834      -0.98964018       0.00000000
Si       1.73949507       1.11760803       1.09008045       0.00000000
Si      -1.72911834      -0.00454491       1.60138764       0.00000000
Si      -1.08835119       1.18947951      -1.77702014       0.00000000
Si      -1.35431802       2.32691247       2.18533467       0.00000000
Si       0.71216622       3.16306188       1.26319504       0.00000000
Si      -0.44359299      -3.48229701      -0.97104907       0.00000000
Si       1.51229844      -0.95218308      -3.18239059       0.00000000
Si      -3.65772402       0.03310128       0.15379916       0.00000000
Si      -3.04261362       2.10725811      -0.89551192       0.00000000
