10
Lattice="16.28999089631971 0.0 0.0 0.0 16.28999089631971 0.0 0.0 0.0 34.49183129400761" Properties=species:S:1:pos:R:3:initial_magmoms:R:1 pbc="T T T"
Si      -0.37603836      -0.54195201      -2.21886424       0.00000000
Si      -0.77532255      -1.94669084       1.11845482       0.00000000
Si       2.01284127       0.93568131       0.90946180       0.00000000
Si      -1.77533307       1.71838323       0.01602250       0.00000000
Si      -2.13307776      -0.56156517       2.41387215       0.00000000
Si       0.62374410       2.17792413       2.39896822       0.00000000
Si      -2.57217471      -1.71511057      -1.87818823       0.00000000
Si      -0.74484396       1.48582719      -3.30849629       0.00000000
Si      -0.64490481       3.58621092       1.03040403       0.00000000
Si      -3.57195717       0.70073064       1.06335754       0.00000000
