10
Lattice="16.28999089631971 0.0 0.0 0.0 16.28999089631971 0.0 0.0 0.0 34.49183129400761" Properties=species:S:1:pos:R:3:initial_magmoms:R:1 pbc="T T T"
Si      -1.33226136      -1.37379597      -1.36281096       0.00000000
Si       1.35776819      -1.35571913       1.35922036       0.00000000
Si      -1.35894438       1.35805820       1.35887544       0.00000000
Si       1.34734590       1.35906818      -1.38496162       0.00000000
Si      -2.73295701      -0.03886142      -2.63578789       0.00000000
Si       2.71452880       0.00100021       2.71612976       0.00000000
Si      -0.00092853      -2.71454672       2.71612976       0.00000000
Si       2.71510221       2.71623695      -0.00351817       0.00000000
Si      -0.00117288       2.71626953       2.71592281       0.00000000
Si      -2.71376739      -2.71853777       0.00089679       0.00000000
