10
Lattice="16.28999089631971 0.0 0.0 0.0 16.28999089631971 0.0 0.0 0.0 34.49183129400761" Properties=species:S:1:pos:R:3:initial_magmoms:R:1 pbc="T T T"
Si       1.36285398      -0.92540232      -1.60438843       0.00000000
Si       0.37603836       0.54195201       2.21886424       0.00000000
Si      -0.36880560       2.02777920      -1.08963205       0.00000000
Si      -2.19613635      -1.17315856       0.34067601       0.00000000
Si      -2.35341630       2.31743169       0.13068962       0.00000000
Si      -1.39929471       2.26033524       2.23488674       0.00000000
Si      -0.39928419      -1.40473883       3.33731906       0.00000000
Si      -1.54588842      -2.82871682       1.84234771       0.00000000
Si       0.79493571      -0.74476251      -3.89802751       0.00000000
Si       3.66852429      -0.41370084      -1.67102668       0.00000000
