10
Lattice="16.28999089631971 0.0 0.0 0.0 16.28999089631971 0.0 0.0 0.0 34.49183129400761" Properties=species:S:1:pos:R:3:initial_magmoms:R:1 pbc="T T T"
Si      -1.35365013      -1.33473744       1.35915137       0.00000000
Si      -1.35327546       1.35870003      -1.35949629       0.00000000
Si       1.36127385      -1.35734796      -1.35884095       0.00000000
Si       1.36355445       1.36153449       1.37815638       0.00000000
Si       0.07801281      -2.55951738       2.71595730       0.00000000
Si      -2.70611109       2.71073745      -0.00244892       0.00000000
Si      -2.71151937      -0.00050499      -2.71575035       0.00000000
Si      -2.71391400      -2.71427238       0.00034492       0.00000000
Si       0.00322542       2.71458189      -2.71588831       0.00000000
Si       0.00330687      -2.71585251      -2.71599179       0.00000000
