10
Lattice="16.28999089631971 0.0 0.0 0.0 16.28999089631971 0.0 0.0 0.0 34.49183129400761" Properties=species:S:1:pos:R:3:initial_magmoms:R:1 pbc="T T T"
Si      -1.43166294       1.22477994      -1.35680593       0.00000000
Si      -1.50527745      -1.11850398       1.41858083       0.00000000
Si       1.45217205       1.21896441       1.43313639       0.00000000
Si       1.28529729      -1.50741144      -1.34552709       0.00000000
Si       0.30234240      -1.12078458       3.09305670       0.00000000
Si      -0.07801281       2.55951738      -2.71595730       0.00000000
Si      -3.30877593       0.65676393       1.69099747       0.00000000
Si      -2.78705610       2.55673179       0.14169252       0.00000000
Si       2.64208554      -0.15848541      -2.71385329       0.00000000
Si      -2.63127483      -2.73114882       0.06925964       0.00000000
