10
Lattice="16.28999089631971 0.0 0.0 0.0 16.28999089631971 0.0 0.0 0.0 34.49183129400761" Properties=species:S:1:pos:R:3:initial_magmoms:R:1 pbc="T T T"
Si      -2.11063014       0.66266091      -0.70711743       0.00000000
Si      -0.63522855      -2.24244882      -0.21912673       0.00000000
Si       0.57876741       0.11261277       2.29991660       0.00000000
Si       0.99308468       0.63982233      -2.12283544       0.00000000
Si      -1.29078702       0.72547515      -2.93097949       0.00000000
Si       2.89975751       0.40594680       1.95934406       0.00000000
Si       0.66810684      -3.20450364       1.45396947       0.00000000
Si      -2.34631386       2.83911894       0.08202162       0.00000000
Si      -0.13677084      -1.96582833       3.31801255       0.00000000
Si      -3.93100506      -0.65736666      -0.11741026       0.00000000
