10
Lattice="16.28999089631971 0.0 0.0 0.0 16.28999089631971 0.0 0.0 0.0 34.49183129400761" Properties=species:S:1:pos:R:3:initial_magmoms:R:1 pbc="T T T"
Si      -1.35516510       1.35671265      -1.35894442       0.00000000
Si       1.35966181      -1.36006839      -1.35908239       0.00000000
Si       1.35170252       1.35619137       1.37125801       0.00000000
Si      -1.35224919      -1.35467640       1.37757002       0.00000000
Si       0.12927550      -2.63453283       2.76662583       0.00000000
Si      -2.71373481       2.71322982      -0.00148315       0.00000000
Si       2.71494746       2.71402803       0.00251791       0.00000000
Si      -2.71257822      -0.00162900      -2.71647468       0.00000000
Si       0.00276160       2.71349046      -2.71644018       0.00000000
Si      -2.71580364      -2.71621089      -0.00058636       0.00000000
