10
Lattice="16.28999089631971 0.0 0.0 0.0 16.28999089631971 0.0 0.0 0.0 34.49183129400761" Properties=species:S:1:pos:R:3:initial_magmoms:R:1 pbc="T T T"
Si       1.35570267      -1.35356162       1.35835806       0.00000000
Si      -1.35658233       1.36078678       1.35911688       0.00000000
Si      -1.33951041      -1.35678910      -1.38380960       0.00000000
Si       1.35946566       1.35130600      -1.39231184       0.00000000
Si      -2.71151448      -2.71452229      -0.00400105       0.00000000
Si       2.71221984      -2.71437568      -0.00241443       0.00000000
Si      -0.00118917      -2.71204621       2.71568136       0.00000000
Si       2.71378368       0.00306089       2.71575035       0.00000000
Si      -2.71557069       0.00299573       2.71568136       0.00000000
Si       2.71285515       2.71964971      -0.00127620       0.00000000
