10
Lattice="16.28999089631971 0.0 0.0 0.0 16.28999089631971 0.0 0.0 0.0 34.49183129400761" Properties=species:S:1:pos:R:3:initial_magmoms:R:1 pbc="T T T"
Si      -0.74231901       2.21482098      -0.04049343       0.00000000
Si       1.94928162      -0.25326063      -1.27947520       0.00000000
Si       1.00001705       0.08588088       2.14249579       0.00000000
Si      -2.00358855      -1.13404464      -0.55531879       0.00000000
Si      -2.00932263       2.16604872       1.97300284       0.00000000
Si       0.26028162      -1.98519714       2.99641053       0.00000000
Si      -2.70415629       0.11823282      -2.40390953       0.00000000
Si       1.32139008       3.36940731      -0.10723516       0.00000000
Si       2.59868573       2.01401415      -1.56203244       0.00000000
Si      -2.28463992       2.42077545      -1.82965471       0.00000000
