10
Lattice="16.28999089631971 0.0 0.0 0.0 16.28999089631971 0.0 0.0 0.0 34.49183129400761" Properties=species:S:1:pos:R:3:initial_magmoms:R:1 pbc="T T T"
Si      -0.13154175       1.02653064       2.12535334       0.00000000
Si      -1.95336648      -0.15638400      -1.32659106       0.00000000
Si       0.50191119      -2.28916854      -0.41210863       0.00000000
Si       0.58674951       1.79251902      -1.54130283       0.00000000
Si      -0.91932615      -1.97076420      -2.34751535       0.00000000
Si      -1.69205859       2.01969936      -2.07285674       0.00000000
Si       1.81022625       3.18477645      -0.13534602       0.00000000
Si       2.85635376      -2.35872684      -0.51789514       0.00000000
Si       0.45752094       3.27733623       1.81965207       0.00000000
Si       3.59608919      -0.28764882      -1.37180988       0.00000000
