10
Lattice="16.28999089631971 0.0 0.0 0.0 16.28999089631971 0.0 0.0 0.0 34.49183129400761" Properties=species:S:1:pos:R:3:initial_magmoms:R:1 pbc="T T T"
Si      -0.75266872       2.15664939      -0.40251990       0.00000000
Si       2.26010881      -0.09187560       0.87009142       0.00000000
Si      -2.14953622      -0.42029829       1.15154492       0.00000000
Si      -0.45856985      -1.30735395      -2.14646235       0.00000000
Si       2.31396355       1.67047434      -1.50460351       0.00000000
Si       1.58977531      -0.48488814       3.11571785       0.00000000
Si      -2.54662126       1.63390329      -1.87170027       0.00000000
Si      -3.51902023      -0.16912278      -0.77765326       0.00000000
Si       0.72832590       3.48074946      -1.58017515       0.00000000
Si       3.24555607       2.05679169       0.66900393       0.00000000
