10
Lattice="16.28999089631971 0.0 0.0 0.0 16.28999089631971 0.0 0.0 0.0 34.49183129400761" Properties=species:S:1:pos:R:3:initial_magmoms:R:1 pbc="T T T"
Si      -0.16513173      -1.81578114      -1.43879305       0.00000000
Si       0.31470651       1.73591127      -1.62256563       0.00000000
Si      -2.17161990       0.41150169       0.96825523       0.00000000
Si       2.21307862      -0.43798923       0.96773785       0.00000000
Si      -2.12766948       2.75469180       0.81428361       0.00000000
Si       1.97265451      -1.81446165      -2.50824737       0.00000000
Si       2.41126928       2.62118059      -1.02747774       0.00000000
Si      -1.64243925       3.02060487      -1.49842946       0.00000000
Si       3.28640066       1.65151278       0.91531024       0.00000000
Si       0.03914487      -3.89954907      -0.36178502       0.00000000
