10
Lattice="16.28999089631971 0.0 0.0 0.0 16.28999089631971 0.0 0.0 0.0 34.49183129400761" Properties=species:S:1:pos:R:3:initial_magmoms:R:1 pbc="T T T"
Si      -0.58906269      -2.25080559       0.30570127       0.00000000
Si      -2.00964843       0.95842215      -0.75947606       0.00000000
Si       1.35270531      -0.09255978      -1.95499809       0.00000000
Si      -1.24664112      -0.10277361       2.45844114       0.00000000
Si       0.76517388       3.52765556       0.47395252       0.00000000
Si       0.12922857      -1.48481721      -3.36095490       0.00000000
Si      -0.45752094      -3.27733623      -1.81965207       0.00000000
Si       1.92459834       2.13690821      -2.46578791       0.00000000
Si       0.72628965      -3.21991398       1.97162316       0.00000000
Si      -2.75819022      -2.04499773       1.88377242       0.00000000
