10
Lattice="16.28999089631971 0.0 0.0 0.0 16.28999089631971 0.0 0.0 0.0 34.49183129400761" Properties=species:S:1:pos:R:3:initial_magmoms:R:1 pbc="T T T"
Si      -1.35500587       1.35669636      -1.35918586       0.00000000
Si      -1.35616246      -1.35780408       1.35763373       0.00000000
Si       1.35901632       1.35690813       1.35766822       0.00000000
Si       1.35888274      -1.35839052      -1.36035859       0.00000000
Si      -2.71328236       2.71497285       0.00162112       0.00000000
Si      -2.71315204      -2.71580364       0.00082780       0.00000000
Si      -2.71385251      -0.00003258       2.71519848       0.00000000
Si       0.00147484      -2.71484253       2.71471559       0.00000000
Si       0.00148731       2.71508688       2.71523297       0.00000000
Si       2.71601893      -0.00052128       2.71506051       0.00000000
