10
Lattice="16.28999089631971 0.0 0.0 0.0 16.28999089631971 0.0 0.0 0.0 34.49183129400761" Properties=species:S:1:pos:R:3:initial_magmoms:R:1 pbc="T T T"
Si      -1.35691268      -1.35637056      -1.35787517       0.00000000
Si       1.35605128      -1.35654975       1.36032409       0.00000000
Si       1.35763141       1.35795069      -1.35753025       0.00000000
Si      -1.35966181       1.36006839       1.35908239       0.00000000
Si      -2.71419160      -2.71349046      -0.00034492       0.00000000
Si       0.00050662      -2.71423980      -2.71468110       0.00000000
Si      -2.71454998       0.00066789      -2.71495703       0.00000000
Si       2.71497937       2.71487511       0.00113823       0.00000000
Si       2.71524001       0.00058644      -2.71492254       0.00000000
Si       0.00062879       2.71538010      -2.71492254       0.00000000
