10
Lattice="16.28999089631971 0.0 0.0 0.0 16.28999089631971 0.0 0.0 0.0 34.49183129400761" Properties=species:S:1:pos:R:3:initial_magmoms:R:1 pbc="T T T"
Si       0.70905483      -1.32649470      -1.75977422       0.00000000
Si       0.57713841       2.01404673      -1.02827105       0.00000000
Si      -2.34120599       0.29118375      -0.00282833       0.00000000
Si       1.48991598      -0.21781359       1.90512287       0.00000000
Si      -2.65473962      -2.03005980       1.09587508       0.00000000
Si       3.01852071      -1.11943251      -1.52009035       0.00000000
Si      -2.33646444       2.33279316       1.47687206       0.00000000
Si       0.15226263      -3.54643074      -1.09139114       0.00000000
Si       2.25779400      -2.45423511       1.83665655       0.00000000
Si      -0.86095745       3.73081725      -0.10909772       0.00000000
