10
Lattice="16.28999089631971 0.0 0.0 0.0 16.28999089631971 0.0 0.0 0.0 34.49183129400761" Properties=species:S:1:pos:R:3:initial_magmoms:R:1 pbc="T T T"
Si      -1.35763348       1.35677781      -1.35763373       0.00000000
Si      -1.35792670      -1.35677781       1.35749576       0.00000000
Si       1.35721787       1.35964485       1.35621956       0.00000000
Si       1.35752900      -1.35817875      -1.35756475       0.00000000
Si       0.00004028       2.71490769       2.71192175       0.00000000
Si      -2.71476967      -0.00011403      -2.71361185       0.00000000
Si       2.71536241      -0.00070047      -2.71399126       0.00000000
Si       2.71448275       2.71500650       0.00017246       0.00000000
Si      -2.71494886       2.71468006      -0.00017246       0.00000000
Si      -0.00276160      -2.71349046       2.71644018       0.00000000
