10
Lattice="16.28999089631971 0.0 0.0 0.0 16.28999089631971 0.0 0.0 0.0 34.49183129400761" Properties=species:S:1:pos:R:3:initial_magmoms:R:1 pbc="T T T"
Si       0.00634170      -2.18455416      -0.86760801       0.00000000
Si      -2.13778624      -0.00131949       1.06945432       0.00000000
Si       1.14332017       1.54756629      -1.43968984       0.00000000
Si       1.49109538       0.02370195       1.89884536       0.00000000
Si      -1.93350964      -2.08508742       2.14646235       0.00000000
Si      -1.97265451       1.81446165       2.50824737       0.00000000
Si       0.24042411       1.37647242       3.47598522       0.00000000
Si      -1.47465292      -3.50865423       0.31004724       0.00000000
Si       2.68018393       0.17715375      -2.86296156       0.00000000
Si       3.80495956       0.38556801       0.92883104       0.00000000
