10
Lattice="16.28999089631971 0.0 0.0 0.0 16.28999089631971 0.0 0.0 0.0 34.51877397758722" Properties=species:S:1:pos:R:3:initial_magmoms:R:1 pbc="T T T"
Si       1.21630751       1.40254782      -1.45924544       0.00000000
Si      -1.31962914       1.37799879       1.40618863       0.00000000
Si       1.39750118      -1.33010686       1.39244325       0.00000000
Si      -1.25651954      -1.44778582      -1.48251110       0.00000000
Si      -0.75515553       2.30219565      -2.56947338       0.00000000
Si      -2.28502341       0.38152320      -2.69049627       0.00000000
Si      -2.67332814       0.02204363       2.76587009       0.00000000
Si       2.72414249       2.71632003      -0.14644253       0.00000000
Si       2.91934556      -2.52336565      -0.05718728       0.00000000
Si      -2.77258311       2.68898541       0.08508192       0.00000000
