10
Lattice="16.28999089631971 0.0 0.0 0.0 16.28999089631971 0.0 0.0 0.0 34.51877397758722" Properties=species:S:1:pos:R:3:initial_magmoms:R:1 pbc="T T T"
Si       0.15379389      -1.87263324      -1.44975480       0.00000000
Si      -0.22061547      -0.65467881       2.28911378       0.00000000
Si       2.24556021       0.93775014      -0.05050099       0.00000000
Si      -2.19216485       1.01188593      -0.52969088       0.00000000
Si      -2.42672619      -1.49775147       2.49774536       0.00000000
Si      -1.63960805      -3.36492756      -0.85661837       0.00000000
Si      -0.25594848       1.34482095       3.63400048       0.00000000
Si       2.83507902       1.63743822       2.11320601       0.00000000
Si       1.53310077      -2.15808291       2.89726588       0.00000000
Si      -2.68032109       2.77429844       0.97094462       0.00000000
