10
Lattice="16.28999089631971 0.0 0.0 0.0 16.28999089631971 0.0 0.0 0.0 34.51877397758722" Properties=species:S:1:pos:R:3:initial_magmoms:R:1 pbc="T T T"
Si      -2.14727450       0.77232519      -0.43359056       0.00000000
Si      -0.02557530      -0.09959706       2.33081248       0.00000000
Si       1.62908145       1.66198140      -0.30172877       0.00000000
Si       0.03533301      -1.99949976      -1.34488670       0.00000000
Si       3.09102750       0.29261727      -1.52079448       0.00000000
Si      -3.45796694      -1.16449065      -0.01580961       0.00000000
Si      -2.34335560       2.65820939       0.95351263       0.00000000
Si      -1.26617120      -2.02668777       2.88404518       0.00000000
Si      -2.17077771      -2.84257242      -1.13625512       0.00000000
Si      -1.39042806       1.94917736       2.99840594       0.00000000
