10
Lattice="16.28999089631971 0.0 0.0 0.0 16.28999089631971 0.0 0.0 0.0 34.51877397758722" Properties=species:S:1:pos:R:3:initial_magmoms:R:1 pbc="T T T"
Si       1.41465618      -1.20427930       1.35441389       0.00000000
Si      -1.34641737      -1.35802792      -1.34675072       0.00000000
Si       1.36563957       1.36144815      -1.34084801       0.00000000
Si      -1.34138376       1.27377537       1.46777361       0.00000000
Si       0.39363156       2.12092053       2.85239144       0.00000000
Si      -0.04276125      -2.24821126       2.81952955       0.00000000
Si       2.33378685       0.44257812       2.79339883       0.00000000
Si      -2.69804754      -2.70161083       0.01808785       0.00000000
Si      -2.70277164      -0.00089269      -2.70347737       0.00000000
Si      -2.69920413       2.70835422       0.03841942       0.00000000
