10
Lattice="16.28999089631971 0.0 0.0 0.0 16.28999089631971 0.0 0.0 0.0 34.51877397758722" Properties=species:S:1:pos:R:3:initial_magmoms:R:1 pbc="T T T"
Si       0.96889662       1.18654731      -1.73322313       0.00000000
Si       0.56027826       0.21211209       2.26381150       0.00000000
Si       0.46871217      -2.29667823      -0.35188458       0.00000000
Si      -2.30698980       0.56236338       0.16879690       0.00000000
Si      -1.01287962      -1.43182584       2.96129824       0.00000000
Si      -0.03647331       0.13683600      -3.63472537       0.00000000
Si       0.19885203      -3.12962666       1.85276171       0.00000000
Si      -3.05546643      -0.80513325       1.97464757       0.00000000
Si      -3.46112001      -0.35940627      -1.69176606       0.00000000
Si       0.43391673       2.35877571       3.04435045       0.00000000
