10
Lattice="16.28999089631971 0.0 0.0 0.0 16.28999089631971 0.0 0.0 0.0 34.51877397758722" Properties=species:S:1:pos:R:3:initial_magmoms:R:1 pbc="T T T"
Si       1.35681039       1.35578412      -1.35662309       0.00000000
Si       1.35506736      -1.35661491       1.36186995       0.00000000
Si      -1.35843939      -1.35912357      -1.35696828       0.00000000
Si      -1.35936792       1.35404109       1.36138669       0.00000000
Si       2.71404432       2.71362078       0.00120816       0.00000000
Si      -0.00081450       2.71368594      -2.71469598       0.00000000
Si      -2.71655624       2.71199178       0.00079393       0.00000000
Si       2.71420722      -0.00175932      -2.71455790       0.00000000
Si      -2.71491421      -2.71528236       0.00062134       0.00000000
Si      -2.71586554      -0.00177561      -2.71441983       0.00000000
