10
Lattice="16.28999089631971 0.0 0.0 0.0 16.28999089631971 0.0 0.0 0.0 34.51877397758722" Properties=species:S:1:pos:R:3:initial_magmoms:R:1 pbc="T T T"
Si      -1.11793383       1.61137422      -1.34747561       0.00000000
Si       1.23188238       1.51107669       1.40253451       0.00000000
Si      -1.52881650      -1.20568806       1.41670447       0.00000000
Si       2.01639249      -0.98254764      -1.12061810       0.00000000
Si      -0.08832438       1.06626195      -3.53938447       0.00000000
Si       3.52893528       1.04485689      -1.13970700       0.00000000
Si      -2.78624160       2.67390576       0.19485859       0.00000000
Si      -0.14631678      -2.53003248       2.95225228       0.00000000
Si       2.56046220       0.18515214       2.96139286       0.00000000
Si      -3.03665148      -2.51946027       0.10390157       0.00000000
