10
Lattice="16.28999089631971 0.0 0.0 0.0 16.28999089631971 0.0 0.0 0.0 34.51877397758722" Properties=species:S:1:pos:R:3:initial_magmoms:R:1 pbc="T T T"
Si       0.04549797      -0.78662781      -2.28935541       0.00000000
Si       0.94882734      -1.84241529       1.31709908       0.00000000
Si      -2.01639249       0.98254764       1.12061810       0.00000000
Si       1.51254279       2.02740453      -0.01908889       0.00000000
Si       1.90781964      -0.24013089       2.79171228       0.00000000
Si       2.24257914      -0.16920423      -2.81179734       0.00000000
Si      -0.78451011       2.49362433       2.52315261       0.00000000
Si       3.26243088       0.99196326       1.28516919       0.00000000
Si      -1.97835534      -0.09785403      -3.19930532       0.00000000
Si      -2.10471687       2.04880959      -2.41876636       0.00000000
