10
Lattice="16.28999089631971 0.0 0.0 0.0 16.28999089631971 0.0 0.0 0.0 34.51877397758722" Properties=species:S:1:pos:R:3:initial_magmoms:R:1 pbc="T T T"
Si      -1.35681039      -1.35578412       1.35662309       0.00000000
Si       1.35739683      -1.35754344      -1.35793481       0.00000000
Si       1.35723393       1.35783666       1.35783125       0.00000000
Si      -1.35762489       1.35790182      -1.35807288       0.00000000
Si       0.00022806      -2.71492398      -2.71445435       0.00000000
Si      -2.71484253       0.00001629      -2.71459242       0.00000000
Si       2.71471221      -2.71479366       0.00013808       0.00000000
Si      -2.71505430       2.71508688       0.00075941       0.00000000
Si      -2.71524978      -2.71490769      -0.00034519       0.00000000
Si       2.71521720       2.71516833      -0.00048326       0.00000000
