10
Lattice="16.28999089631971 0.0 0.0 0.0 16.28999089631971 0.0 0.0 0.0 34.51877397758722" Properties=species:S:1:pos:R:3:initial_magmoms:R:1 pbc="T T T"
Si      -1.40836335       1.33832124      -1.34012311       0.00000000
Si       1.56416580      -0.92473443      -1.52124322       0.00000000
Si       1.15413021       0.92176965       1.86056296       0.00000000
Si      -1.39886140      -1.81335393       0.77625862       0.00000000
Si       0.16436610      -1.41213123      -3.38153003       0.00000000
Si       0.40565358      -0.44572698       3.66641363       0.00000000
Si      -3.60368099       0.70014420      -0.67104534       0.00000000
Si      -1.03665487       0.66077127      -3.58853923       0.00000000
Si      -0.44593386      -2.52238595       2.82115194       0.00000000
Si       2.57357565      -2.80958191      -0.47898278       0.00000000
