10
Lattice="16.28999089631971 0.0 0.0 0.0 16.28999089631971 0.0 0.0 0.0 34.51877397758722" Properties=species:S:1:pos:R:3:initial_magmoms:R:1 pbc="T T T"
Si      -0.16563672       2.01521961       1.21606257       0.00000000
Si       0.22504635      -0.19399761      -2.34251435       0.00000000
Si      -1.84068855      -1.29938814       0.81978682       0.00000000
Si       1.99674675      -1.33727868       0.95720614       0.00000000
Si       1.97190450       1.33662708      -2.65801612       0.00000000
Si       3.18169764       1.63595583      -0.67152860       0.00000000
Si       1.72494810      -3.27606561      -0.59745127       0.00000000
Si      -0.90406242       0.92277963       3.52737193       0.00000000
Si       1.20233232      -2.32772697      -2.72246271       0.00000000
Si      -1.87600527       3.34164915       0.33697246       0.00000000
