10
Lattice="16.28999089631971 0.0 0.0 0.0 16.28999089631971 0.0 0.0 0.0 34.51877397758722" Properties=species:S:1:pos:R:3:initial_magmoms:R:1 pbc="T T T"
Si      -1.33667595      -1.34021088      -1.38866689       0.00000000
Si       1.35987291      -1.35294966       1.35486264       0.00000000
Si      -1.35498591       1.35812366       1.35603627       0.00000000
Si       1.35576783       1.34168889      -1.37568782       0.00000000
Si      -2.54853792       0.17177805      -2.82878749       0.00000000
Si       0.00148239      -2.71318095       2.71210707       0.00000000
Si      -2.71337643       0.00203625       2.71255581       0.00000000
Si      -2.71371852      -2.71401174      -0.00780125       0.00000000
Si      -2.71386513       2.71469659      -0.00497071       0.00000000
Si       2.71656927       0.00180819       2.71259033       0.00000000
