10
Lattice="16.28999089631971 0.0 0.0 0.0 16.28999089631971 0.0 0.0 0.0 34.51877397758722" Properties=species:S:1:pos:R:3:initial_magmoms:R:1 pbc="T T T"
Si      -1.35265644      -1.34501643       1.35810740       0.00000000
Si      -1.35392706       1.35764118      -1.36004045       0.00000000
Si       1.36031274      -1.35821133      -1.35655406       0.00000000
Si       1.35252612       1.36394541       1.37156973       0.00000000
Si       0.04878855      -2.65256586       2.68953178       0.00000000
Si      -2.59515990       0.13105305       2.75553171       0.00000000
Si      -2.71243161       2.71321353      -0.00200209       0.00000000
Si      -2.71215468      -0.00063531      -2.71500665       0.00000000
Si       0.00289962       2.71428365      -2.71552443       0.00000000
Si      -2.71526607      -2.71497285       0.00189853       0.00000000
