10
Lattice="16.28999089631971 0.0 0.0 0.0 16.28999089631971 0.0 0.0 0.0 34.51877397758722" Properties=species:S:1:pos:R:3:initial_magmoms:R:1 pbc="T T T"
Si       0.19608110      -1.88588420      -1.38710319       0.00000000
Si       0.95292753      -0.70903202       2.04489331       0.00000000
Si      -2.31218698       0.55105812      -0.09175095       0.00000000
Si       1.39886140       1.81335393      -0.77625862       0.00000000
Si      -2.20481959       2.51349813      -1.44730396       0.00000000
Si       2.34335560      -2.65820939      -0.95351263       0.00000000
Si       1.80451498       1.36762695       2.89015500       0.00000000
Si      -0.00950196       3.15167517      -2.11638173       0.00000000
Si      -0.08101701      -1.22873189      -3.61656849       0.00000000
Si       2.96302720       0.88861950      -2.29750184       0.00000000
