10
Lattice="16.28999089631971 0.0 0.0 0.0 16.28999089631971 0.0 0.0 0.0 34.51877397758722" Properties=species:S:1:pos:R:3:initial_magmoms:R:1 pbc="T T T"
Si      -0.95292753       0.70903202      -2.04489331       0.00000000
Si      -1.58431231      -0.65714674       1.65493451       0.00000000
Si       0.85158744       2.07665897       0.84526169       0.00000000
Si       1.36485276      -2.04877442      -0.66759346       0.00000000
Si      -0.75684643      -1.17685217      -3.43199650       0.00000000
Si       2.89417425       1.44996638       1.83191236       0.00000000
Si       0.44593386       2.52238595      -2.82115194       0.00000000
Si      -0.43777746      -1.97957450       3.25377597       0.00000000
Si       1.39042806      -1.94917736      -2.99840594       0.00000000
Si       1.60006407       3.44415560      -0.96058898       0.00000000
