10
Lattice="16.28999089631971 0.0 0.0 0.0 16.28999089631971 0.0 0.0 0.0 34.51877397758722" Properties=species:S:1:pos:R:3:initial_magmoms:R:1 pbc="T T T"
Si      -1.41465618       1.20427930      -1.35441389       0.00000000
Si      -1.45741743      -1.04393196       1.46511566       0.00000000
Si       0.91913067       1.64685742       1.43898493       0.00000000
Si       1.30388418      -1.50301674      -1.32759279       0.00000000
Si       1.87558173      -0.32347413       2.41141386       0.00000000
Si       0.31726404      -2.12913918       2.64973161       0.00000000
Si       2.62058859       2.52801610       0.08933464       0.00000000
Si      -2.75603994       2.47805467       0.11335972       0.00000000
Si      -0.04901661       2.56572745      -2.69526190       0.00000000
Si      -1.02102462       3.32519983       1.49797755       0.00000000
