10
Lattice="16.28999089631971 0.0 0.0 0.0 16.28999089631971 0.0 0.0 0.0 34.51877397758722" Properties=species:S:1:pos:R:3:initial_magmoms:R:1 pbc="T T T"
Si      -1.98847143       1.33375515      -0.10724989       0.00000000
Si       2.00275776       1.27988412      -0.34052790       0.00000000
Si       0.37854702      -0.55445068       2.30675288       0.00000000
Si      -0.57870225      -2.21048362      -0.79244794       0.00000000
Si      -1.64695158       0.24648399       3.17804174       0.00000000
Si       2.12604048       2.56793442       1.70070643       0.00000000
Si      -2.22793443       2.29421355       2.01234209       0.00000000
Si       3.77566362      -0.35847937      -0.19713683       0.00000000
Si      -3.91054482       0.00673592      -0.56248374       0.00000000
Si       1.29096621      -3.58856875      -1.09303759       0.00000000
