10
Lattice="16.28999089631971 0.0 0.0 0.0 16.28999089631971 0.0 0.0 0.0 34.51877397758722" Properties=species:S:1:pos:R:3:initial_magmoms:R:1 pbc="T T T"
Si       2.26018863       0.42153633       0.25008866       0.00000000
Si      -0.91412964       2.13570045      -0.27383759       0.00000000
Si      -0.44932707      -1.47694914       1.77571576       0.00000000
Si      -0.12328272      -1.28805030      -2.04123432       0.00000000
Si       2.87456598      -1.82871377       0.03148114       0.00000000
Si      -0.30516057       2.42929512      -2.51193259       0.00000000
Si       1.79683587      -2.26494694       2.13243297       0.00000000
Si      -3.10730121       1.78344549       0.41733221       0.00000000
Si       0.61168950       0.47995227      -3.53879765       0.00000000
Si      -1.74749346      -3.12238510       0.60604645       0.00000000
