10
Lattice="16.28999089631971 0.0 0.0 0.0 16.28999089631971 0.0 0.0 0.0 34.51877397758722" Properties=species:S:1:pos:R:3:initial_magmoms:R:1 pbc="T T T"
Si       1.37303523       1.32659244      -1.34841107       0.00000000
Si      -1.35799956       1.35777150       1.35669213       0.00000000
Si       1.35576783      -1.35894438       1.35807288       0.00000000
Si      -1.37222073      -1.34425080      -1.37152486       0.00000000
Si      -0.00847080      -2.75208147      -2.66182354       0.00000000
Si       2.71181259      -2.71326240       0.00075941       0.00000000
Si       0.10500534       2.63611296      -2.78546986       0.00000000
Si       2.71366965       0.00029322       2.71407464       0.00000000
Si      -0.00053757       2.71502172       2.71428175       0.00000000
Si      -0.00154755      -2.71515204       2.71448887       0.00000000
