10
Lattice="16.28999089631971 0.0 0.0 0.0 16.28999089631971 0.0 0.0 0.0 34.51877397758722" Properties=species:S:1:pos:R:3:initial_magmoms:R:1 pbc="T T T"
Si       1.35689184       1.35705474      -1.35752058       0.00000000
Si      -1.35679410       1.35759231       1.35821096       0.00000000
Si      -1.35861858      -1.35786924      -1.35741703       0.00000000
Si       1.35490446      -1.35874890       1.36086891       0.00000000
Si      -2.69627193      -0.02329470       2.72833090       0.00000000
Si       0.00679293       2.70011637       2.72753697       0.00000000
Si       2.71446786       2.71469592      -0.00058682       0.00000000
Si       2.71399545      -0.00037467      -2.71545539       0.00000000
Si      -0.00021177       2.71435383      -2.71524828       0.00000000
Si      -2.71609686       2.71476108       0.00027615       0.00000000
