10
Lattice="16.28999089631971 0.0 0.0 0.0 16.28999089631971 0.0 0.0 0.0 34.51877397758722" Properties=species:S:1:pos:R:3:initial_magmoms:R:1 pbc="T T T"
Si       0.05732451      -0.68009121       2.28493700       0.00000000
Si      -1.69109748       1.68692724       0.14473730       0.00000000
Si       0.74950290      -0.68484789      -2.20540570       0.00000000
Si       2.01583863       1.36818081      -0.28809385       0.00000000
Si       0.39695472       3.05274600       0.34860529       0.00000000
Si       2.41877178      -0.96829389       2.33136478       0.00000000
Si      -0.85952556       1.26925164       3.31180206       0.00000000
Si       3.73576941       0.38025747       0.93504507       0.00000000
Si      -1.01726163      -1.64209716      -3.48784791       0.00000000
Si       1.78432515       1.11768948      -3.51846608       0.00000000
