10
Lattice="16.28999089631971 0.0 0.0 0.0 16.28999089631971 0.0 0.0 0.0 34.51877397758722" Properties=species:S:1:pos:R:3:initial_magmoms:R:1 pbc="T T T"
Si       2.19317157       0.35225496      -0.69116980       0.00000000
Si       0.19578951      -0.08483832       2.32622148       0.00000000
Si      -1.24667370      -2.05716636      -0.10569654       0.00000000
Si      -1.11249297       2.08070541      -0.50904864       0.00000000
Si      -3.15441189      -0.84432699       0.66320958       0.00000000
Si      -2.14904196       0.20538432       2.56471182       0.00000000
Si       2.39808348       2.41292367       0.50542417       0.00000000
Si      -3.23589447       1.08998019      -0.68792503       0.00000000
Si       1.57193613       1.79348013       2.63378393       0.00000000
Si       3.10730121      -1.78344549      -0.41733221       0.00000000
