10
Lattice="16.28999089631971 0.0 0.0 0.0 16.28999089631971 0.0 0.0 0.0 34.51877397758722" Properties=species:S:1:pos:R:3:initial_magmoms:R:1 pbc="T T T"
Si       0.97265961       1.78168617       1.14436669       0.00000000
Si      -1.75847292      -1.02791529       1.14443573       0.00000000
Si      -0.98722287       1.31385366      -1.74758816       0.00000000
Si       1.79247015      -1.65763782      -0.37719207       0.00000000
Si       2.22586560       0.40562100       2.56340321       0.00000000
Si      -0.49044303      -2.33743581       2.58149451       0.00000000
Si       2.75011038       2.58224193      -0.33097141       0.00000000
Si       0.88169625      -3.57508485       1.08201539       0.00000000
Si       3.61066221      -0.84755241       1.00286725       0.00000000
Si       2.26092168      -1.26545607      -2.88153052       0.00000000
