10
Lattice="16.28999089631971 0.0 0.0 0.0 16.28999089631971 0.0 0.0 0.0 34.51877397758722" Properties=species:S:1:pos:R:3:initial_magmoms:R:1 pbc="T T T"
Si       1.35483930      -1.35645201      -1.36035112       0.00000000
Si      -1.36080144       1.35873261      -1.35907393       0.00000000
Si       1.34345259       1.37906253       1.36494212       0.00000000
Si      -1.35283563      -1.37103156       1.36777266       0.00000000
Si       2.51990010      -0.08816148       2.74955996       0.00000000
Si      -2.67232563       0.06437808       2.68701191       0.00000000
Si       2.71280628       2.71510317      -0.00124268       0.00000000
Si       2.71533123      -2.71423980      -0.00093201       0.00000000
Si      -2.71642266      -2.71355562      -0.00155335       0.00000000
Si       2.71238274       0.00057015      -2.71766459       0.00000000
