10
Lattice="16.28999089631971 0.0 0.0 0.0 16.28999089631971 0.0 0.0 0.0 34.51877397758722" Properties=species:S:1:pos:R:3:initial_magmoms:R:1 pbc="T T T"
Si      -1.35694071      -1.35778779      -1.35872874       0.00000000
Si       1.35814617       1.35682668      -1.35893585       0.00000000
Si      -1.36031274       1.35821133       1.35655406       0.00000000
Si       1.36080144      -1.35873261       1.35907393       0.00000000
Si      -2.71296918       0.01319490       2.71466146       0.00000000
Si       2.71406061       2.71401174      -0.00231276       0.00000000
Si       2.70425403       0.02032992       2.72401605       0.00000000
Si      -2.71492398      -2.71511946      -0.00041423       0.00000000
Si      -2.71423980       2.71585251      -0.00348640       0.00000000
Si       0.00030951       2.71469592      -2.71580058       0.00000000
