10
Lattice="16.28999089631971 0.0 0.0 0.0 16.28999089631971 0.0 0.0 0.0 34.51877397758722" Properties=species:S:1:pos:R:3:initial_magmoms:R:1 pbc="T T T"
Si      -1.29352374      -1.40178708      -1.38869105       0.00000000
Si       1.39491270       1.31139387      -1.41250902       0.00000000
Si      -0.06317262       1.00629846       2.19477391       0.00000000
Si      -2.00549448       1.15180074       0.90242481       0.00000000
Si       2.14492059       1.81161972       1.95214132       0.00000000
Si      -3.56381217      -0.65386431       1.14074256       0.00000000
Si       2.19051630       3.12433145      -0.10452291       0.00000000
Si      -2.57719203      -0.02774187      -2.83658184       0.00000000
Si      -2.60863173      -2.83485096       0.11077081       0.00000000
Si       0.12696426       2.67429250      -2.84441760       0.00000000
