10
Lattice="16.28999089631971 0.0 0.0 0.0 16.28999089631971 0.0 0.0 0.0 34.51877397758722" Properties=species:S:1:pos:R:3:initial_magmoms:R:1 pbc="T T T"
Si      -0.79560360      -1.81293758      -1.30798611       0.00000000
Si       1.87729218       0.85649562      -1.28589409       0.00000000
Si      -0.04559571      -1.31271173       2.05666422       0.00000000
Si      -1.68423939       1.83620880      -0.03268930       0.00000000
Si      -2.06355204      -0.45003894      -2.73989470       0.00000000
Si       0.66528360       2.26865943      -2.74376080       0.00000000
Si      -3.45100392       0.87895953      -1.31513150       0.00000000
Si      -2.19051630      -3.12433145       0.10452291       0.00000000
Si      -2.25368892      -2.11803299       2.29929682       0.00000000
Si       2.98008838       2.46847257       0.12388795       0.00000000
