10
Lattice="16.28999089631971 0.0 0.0 0.0 16.28999089631971 0.0 0.0 0.0 34.51877397758722" Properties=species:S:1:pos:R:3:initial_magmoms:R:1 pbc="T T T"
Si      -0.61437735       2.25025010       0.21860752       0.00000000
Si       2.24918671      -0.77049582       0.15171010       0.00000000
Si      -1.07773011      -0.43623317       2.10095183       0.00000000
Si      -1.22494284      -1.09770002      -1.92932439       0.00000000
Si      -1.01791323      -3.04257357      -0.40538871       0.00000000
Si      -2.87456598       1.82871377      -0.03148114       0.00000000
Si      -0.89039511      -2.78579430       1.94906914       0.00000000
Si       0.52818696       3.17594564      -1.53957270       0.00000000
Si       0.36686709      -0.33621745      -3.64352767       0.00000000
Si      -2.99784870       0.54066347      -2.07271546       0.00000000
