10
Lattice="16.28999089631971 0.0 0.0 0.0 16.28999089631971 0.0 0.0 0.0 34.51877397758722" Properties=species:S:1:pos:R:3:initial_magmoms:R:1 pbc="T T T"
Si      -1.34752509      -1.35909099      -1.35091369       0.00000000
Si      -1.35604476       1.35431802       1.35731347       0.00000000
Si       1.35840681      -1.35850455       1.35634694       0.00000000
Si       1.34726445       1.37468052      -1.36588449       0.00000000
Si       2.61995328      -0.04916322      -2.68544820       0.00000000
Si      -2.72028339      -0.03881907      -2.66258296       0.00000000
Si      -2.71181259       2.71326240      -0.00075941       0.00000000
Si      -2.70772380      -2.71883032      -0.00445292       0.00000000
Si       0.00185706       2.71355562       2.71331523       0.00000000
Si      -2.71336014      -0.00188964       2.71372945       0.00000000
