10
Lattice="16.28999089631971 0.0 0.0 0.0 16.28999089631971 0.0 0.0 0.0 34.51877397758722" Properties=species:S:1:pos:R:3:initial_magmoms:R:1 pbc="T T T"
Si       1.31470074      -1.37008674      -1.39801113       0.00000000
Si      -1.41038820       1.36515087      -1.36728940       0.00000000
Si       1.83032811       0.74767842       1.37702370       0.00000000
Si      -1.03482225      -1.80253737       1.31306038       0.00000000
Si       0.23151348       0.25049133       3.23037223       0.00000000
Si       2.52670932      -2.78225055       0.05985559       0.00000000
Si       2.67245261      -0.00752598      -2.75798254       0.00000000
Si      -0.03437190       2.70404226      -2.75629112       0.00000000
Si      -0.03746700      -2.72315043      -2.75549719       0.00000000
Si      -2.75442723      -0.01161477      -2.75425451       0.00000000
