10
Lattice="16.28999089631971 0.0 0.0 0.0 16.28999089631971 0.0 0.0 0.0 34.51877397758722" Properties=species:S:1:pos:R:3:initial_magmoms:R:1 pbc="T T T"
Si       0.09436797       0.11375307       2.38259067       0.00000000
Si       1.61888391      -1.68456519      -0.63669914       0.00000000
Si       0.84564648       2.23402689      -0.68005475       0.00000000
Si      -2.08805220      -1.36581876      -0.20386799       0.00000000
Si      -0.39695472      -3.05274600      -0.34860529       0.00000000
Si      -0.08804745       2.50634682       2.68559664       0.00000000
Si      -1.25648028      -1.78349436       2.96319677       0.00000000
Si      -3.01288437      -0.42352371      -2.18559191       0.00000000
Si      -0.61975305       2.77650018      -2.44582910       0.00000000
Si      -1.48615299       0.82288935      -3.61118356       0.00000000
