10
Lattice="16.28999089631971 0.0 0.0 0.0 16.28999089631971 0.0 0.0 0.0 34.51877397758722" Properties=species:S:1:pos:R:3:initial_magmoms:R:1 pbc="T T T"
Si       0.17720262      -2.30684319       0.85765394       0.00000000
Si       2.35212939       0.72324342       0.21563890       0.00000000
Si      -1.51575192       0.61131483      -2.48293680       0.00000000
Si      -2.12322231      -1.59816303      -1.83229207       0.00000000
Si      -3.11479461      -1.15362522       0.29610221       0.00000000
Si      -2.15068725       2.34828495      -1.00756906       0.00000000
Si      -0.23232798      -3.02997258      -1.44323075       0.00000000
Si      -0.81889830      -1.52717121       3.01587245       0.00000000
Si      -3.28645863       1.20935331       0.74646890       0.00000000
Si       2.06231400       1.85095125       2.38490343       0.00000000
