10
Lattice="16.28999089631971 0.0 0.0 0.0 16.28999089631971 0.0 0.0 0.0 34.51877397758722" Properties=species:S:1:pos:R:3:initial_magmoms:R:1 pbc="T T T"
Si       0.79246845      -1.91961360      -1.11975513       0.00000000
Si       1.52566668       1.17283113       1.42131964       0.00000000
Si      -1.22495913      -1.53282384       1.53480017       0.00000000
Si      -1.05332769       1.55302344      -1.95704298       0.00000000
Si       1.25265932       2.26504305      -1.63788222       0.00000000
Si       2.60531576       0.44766549      -2.42470360       0.00000000
Si       0.95108255      -1.06557777      -3.30161902       0.00000000
Si      -2.49764796      -0.10898010       2.85436389       0.00000000
Si       3.01434137       2.37410460       0.08142983       0.00000000
Si       0.22448671       2.59356348       2.82653138       0.00000000
