10
Lattice="16.28999089631971 0.0 0.0 0.0 16.28999089631971 0.0 0.0 0.0 34.51877397758722" Properties=species:S:1:pos:R:3:initial_magmoms:R:1 pbc="T T T"
Si       2.30598701       0.71201961       0.31916076       0.00000000
Si       0.28981539      -1.12770783      -2.16926453       0.00000000
Si      -1.37899737       2.07515052      -0.63490416       0.00000000
Si       1.05332769      -1.55302344       1.95704298       0.00000000
Si      -1.84744890       1.68296877       1.86943429       0.00000000
Si       2.00441024      -2.61860121      -1.34457604       0.00000000
Si      -2.06231400      -1.85095125      -2.38490343       0.00000000
Si       3.65864345      -1.10535795      -0.46766061       0.00000000
Si       1.84579614      -3.47263704       0.83728785       0.00000000
Si       1.52042293       0.31341960      -3.71190940       0.00000000
