10
Lattice="16.28999089631971 0.0 0.0 0.0 16.28999089631971 0.0 0.0 0.0 34.51877397758722" Properties=species:S:1:pos:R:3:initial_magmoms:R:1 pbc="T T T"
Si       1.35239580      -1.36026387      -1.36028209       0.00000000
Si      -1.36049193       1.35778779      -1.35941912       0.00000000
Si       1.34504901       1.34203536       1.39297138       0.00000000
Si      -1.37601630      -1.33889139       1.38900172       0.00000000
Si      -0.19543113       2.62607832       2.75049197       0.00000000
Si       2.70682451      -2.71156824      -0.00169142       0.00000000
Si       2.71149026      -0.00060273      -2.71635288       0.00000000
Si       2.71194741       2.71624347       0.00227824       0.00000000
Si      -2.71533123       2.71423980       0.00093201       0.00000000
Si      -0.00294849       2.71480995      -2.71673259       0.00000000
