10
Lattice="16.28999089631971 0.0 0.0 0.0 16.28999089631971 0.0 0.0 0.0 34.51877397758722" Properties=species:S:1:pos:R:3:initial_magmoms:R:1 pbc="T T T"
Si      -1.34504901      -1.34203536      -1.39297138       0.00000000
Si       1.36689840       1.37420811      -1.39069314       0.00000000
Si      -1.54048014       1.28404296       1.35752058       0.00000000
Si       1.45785239      -1.29891573       1.56204443       0.00000000
Si       0.40211865       1.98966060       2.57133943       0.00000000
Si       2.39505747       0.62433054       2.84990609       0.00000000
Si       2.71750499      -2.68441281      -0.01946860       0.00000000
Si      -2.72106531      -2.68092675      -0.00396966       0.00000000
Si       0.00734679      -2.70229923      -2.75325347       0.00000000
Si      -2.70554094       0.01575243      -2.75239050       0.00000000
