10
Lattice="16.28999089631971 0.0 0.0 0.0 16.28999089631971 0.0 0.0 0.0 34.51877397758722" Properties=species:S:1:pos:R:3:initial_magmoms:R:1 pbc="T T T"
Si      -1.35615879       1.35685926       1.35879778       0.00000000
Si      -1.35658233      -1.35767376      -1.35762414       0.00000000
Si       1.35842529       1.35721764      -1.35734799       0.00000000
Si       1.35831357      -1.35624024       1.36138669       0.00000000
Si      -2.71412577      -2.71469592      -0.00031067       0.00000000
Si      -2.71391400      -0.00078192      -2.71497213       0.00000000
Si       0.00063531      -2.71464705      -2.71507568       0.00000000
Si       0.00107514       2.71490769      -2.71524828       0.00000000
Si      -2.71570590       2.71450044      -0.00134623       0.00000000
Si       2.71569680       2.71480995      -0.00096653       0.00000000
