10
Lattice="16.28999089631971 0.0 0.0 0.0 16.28999089631971 0.0 0.0 0.0 34.51877397758722" Properties=species:S:1:pos:R:3:initial_magmoms:R:1 pbc="T T T"
Si       1.67660331       0.95133600       1.30433199       0.00000000
Si       0.76263168       0.13546764      -2.23678329       0.00000000
Si      -1.15601985      -1.90291635       1.19990574       0.00000000
Si      -2.01657168       1.52687799      -0.13393292       0.00000000
Si       0.15915638       2.08529919       2.75045196       0.00000000
Si      -1.34930070      -0.22286349      -3.27334813       0.00000000
Si      -1.26807876       3.34127448       1.24511500       0.00000000
Si      -2.54081646      -0.64974294       2.76044170       0.00000000
Si       3.41131238       1.93554522      -0.07128131       0.00000000
Si       1.79426924      -1.77850962      -3.03955234       0.00000000
