10
Lattice="16.28999089631971 0.0 0.0 0.0 16.28999089631971 0.0 0.0 0.0 34.51877397758722" Properties=species:S:1:pos:R:3:initial_magmoms:R:1 pbc="T T T"
Si      -0.97265961      -1.78168617      -1.14436669       0.00000000
Si       1.25320599      -1.37606517       1.41903652       0.00000000
Si      -1.47598803       1.34472321       1.39683749       0.00000000
Si       1.77745077       0.80055576      -1.47533810       0.00000000
Si      -1.95988248      -0.46783251      -2.89195485       0.00000000
Si       2.52594369       2.61495225      -0.09629017       0.00000000
Si       2.63800260      -2.62923858      -0.14149944       0.00000000
Si       2.59390557      -0.02070459       2.78364036       0.00000000
Si       0.81981054      -3.43932399      -1.52155876       0.00000000
Si      -0.12048084       2.69979057       2.78298451       0.00000000
