10
Lattice="16.28999089631971 0.0 0.0 0.0 16.28999089631971 0.0 0.0 0.0 34.51877397758722" Properties=species:S:1:pos:R:3:initial_magmoms:R:1 pbc="T T T"
Si       1.35615879      -1.35685926      -1.35879778       0.00000000
Si      -1.36935369      -1.33604064       1.36618480       0.00000000
Si      -1.35954711       1.35764118      -1.36014401       0.00000000
Si       1.35754344       1.35079938       1.39545674       0.00000000
Si       2.71447236      -2.71309950       0.00258891       0.00000000
Si      -2.71280628      -2.71510317       0.00124268       0.00000000
Si       2.71458408       0.00035838      -2.71614577       0.00000000
Si       2.71700910       2.71392027       0.00307217       0.00000000
Si      -0.00042354      -2.71453302      -2.71642192       0.00000000
Si      -2.71448415       2.71656873      -0.00151883       0.00000000
