10
Lattice="16.28999089631971 0.0 0.0 0.0 16.28999089631971 0.0 0.0 0.0 34.51877397758722" Properties=species:S:1:pos:R:3:initial_magmoms:R:1 pbc="T T T"
Si      -1.15566961      -1.41284799       1.47988971       0.00000000
Si       1.37865528       1.61464851       1.02748640       0.00000000
Si       1.64406825      -1.54113174      -0.80221676       0.00000000
Si      -1.65244326       0.81316422      -1.52728401       0.00000000
Si      -3.31989290      -1.16926362       0.53683627       0.00000000
Si       3.64003308      -0.44703018      -0.37263037       0.00000000
Si       3.22414938       0.35693019       1.77433501       0.00000000
Si      -3.54567230       1.13181291      -0.05357317       0.00000000
Si       2.39287068       2.92397355      -0.66369284       0.00000000
Si      -2.43251144      -0.97619454      -2.84376175       0.00000000
