10
Lattice="16.28999089631971 0.0 0.0 0.0 16.28999089631971 0.0 0.0 0.0 34.51877397758722" Properties=species:S:1:pos:R:3:initial_magmoms:R:1 pbc="T T T"
Si       1.42637588      -1.11614193      -1.60684983       0.00000000
Si      -1.31743746      -1.35006633       1.54257583       0.00000000
Si       1.23110113       1.34177472       1.68410289       0.00000000
Si      -1.04733297       2.13838083      -0.78965191       0.00000000
Si      -0.74841147       2.64717454       1.53808839       0.00000000
Si      -3.18840912       0.17485686       1.53394614       0.00000000
Si      -3.25542618       1.33305957      -0.54701932       0.00000000
Si       2.22313932      -3.06164034      -0.48999427       0.00000000
Si      -0.27776079      -1.01512764       3.71467090       0.00000000
Si       3.16512161       2.42428173       0.95931178       0.00000000
