10
Lattice="16.28999089631971 0.0 0.0 0.0 16.28999089631971 0.0 0.0 0.0 34.51877397758722" Properties=species:S:1:pos:R:3:initial_magmoms:R:1 pbc="T T T"
Si      -2.10598749       0.57866967      -0.84988721       0.00000000
Si      -0.05735709      -0.61615296       2.29263469       0.00000000
Si       1.31069244       1.93681584      -0.41778095       0.00000000
Si       1.28718923      -1.67808177      -1.12044551       0.00000000
Si       3.45796694       1.16449065       0.01580961       0.00000000
Si       2.19179574      -0.86219712       2.89985478       0.00000000
Si      -2.29332249       2.92823080      -0.69800452       0.00000000
Si       3.49329995      -0.83500911      -1.32907710       0.00000000
Si       1.03359433       2.59396814      -2.64724626       0.00000000
Si       1.53191064      -3.57860349       0.22523513       0.00000000
