10
Lattice="16.28999089631971 0.0 0.0 0.0 16.28999089631971 0.0 0.0 0.0 34.51877397758722" Properties=species:S:1:pos:R:3:initial_magmoms:R:1 pbc="T T T"
Si       1.07660610      -1.45205802      -1.59048792       0.00000000
Si       1.61718975       1.62061621       0.78602744       0.00000000
Si      -2.02018806       1.09432962      -0.76762892       0.00000000
Si      -0.35583876      -1.66312755       2.07019559       0.00000000
Si       2.76372460       0.29818845       2.38486891       0.00000000
Si      -2.67879276      -1.52153487       2.15580220       0.00000000
Si      -3.21763338      -1.95035283      -0.18298412       0.00000000
Si       0.44196399      -3.66262731      -0.94011933       0.00000000
Si       3.32575893      -1.69810218      -0.98326783       0.00000000
Si      -1.51775559       3.42396971      -1.08630642       0.00000000
