10
Lattice="16.28999089631971 0.0 0.0 0.0 16.28999089631971 0.0 0.0 0.0 34.51877397758722" Properties=species:S:1:pos:R:3:initial_magmoms:R:1 pbc="T T T"
Si      -2.32295400       0.14159268       0.08560661       0.00000000
Si       0.91018746      -2.14886277      -0.55212810       0.00000000
Si       0.24291648      -0.39912129       2.58728711       0.00000000
Si       0.35583876       1.66312755      -2.07019559       0.00000000
Si      -2.20773483       2.36789811       0.95541116       0.00000000
Si       3.02211984      -1.79053164       0.48443674       0.00000000
Si      -2.86179462      -0.28722528      -2.25317971       0.00000000
Si       3.11956336       1.96131600       0.31467332       0.00000000
Si       0.79780275      -1.99949976      -3.01031492       0.00000000
Si       1.43244486       0.21106953      -3.66068351       0.00000000
