10
Lattice="16.28999089631971 0.0 0.0 0.0 16.28999089631971 0.0 0.0 0.0 34.51877397758722" Properties=species:S:1:pos:R:3:initial_magmoms:R:1 pbc="T T T"
Si      -1.35678256       1.35669636      -1.35755510       0.00000000
Si       1.35776905      -1.35793603      -1.35776221       0.00000000
Si       1.35858192       1.35821133       1.35731347       0.00000000
Si      -1.35833011      -1.35868537       1.35745155       0.00000000
Si      -2.71442374       2.71412577      -0.00058682       0.00000000
Si       2.71505674       2.71437012      -0.00027615       0.00000000
Si       0.00123291       2.71438641      -2.71552443       0.00000000
Si      -2.71580839      -0.00008145      -2.71479953       0.00000000
Si       0.00138572      -2.71571199      -2.71490309       0.00000000
Si      -2.71474954      -2.71588324      -0.00041423       0.00000000
