10
Lattice="16.28999089631971 0.0 0.0 0.0 16.28999089631971 0.0 0.0 0.0 34.51877397758722" Properties=species:S:1:pos:R:3:initial_magmoms:R:1 pbc="T T T"
Si       1.25965259      -1.38549708      -1.58151303       0.00000000
Si       0.93720508       1.92324627       1.28786166       0.00000000
Si      -1.45785239       1.29891573      -1.56204443       0.00000000
Si      -0.93820139      -1.99948347       1.17829901       0.00000000
Si      -1.05573374       3.28857633       1.00929500       0.00000000
Si       2.42083637      -2.89403253      -0.21194539       0.00000000
Si       2.74399739       2.75592591      -0.07549260       0.00000000
Si      -2.76852950      -2.74716189      -0.19872469       0.00000000
Si       2.62262060      -0.04484637      -2.95339343       0.00000000
Si      -2.99833253       2.58295869      -0.20452385       0.00000000
