10
Lattice="16.28999089631971 0.0 0.0 0.0 16.28999089631971 0.0 0.0 0.0 34.51877397758722" Properties=species:S:1:pos:R:3:initial_magmoms:R:1 pbc="T T T"
Si      -0.15379389       1.87263324       1.44975480       0.00000000
Si       1.80687051      -1.48740732       0.41222343       0.00000000
Si       0.14884173       0.60585768      -2.31341501       0.00000000
Si      -1.79340194      -1.49229432       0.59313642       0.00000000
Si       2.43996507       1.00709667      -1.56725677       0.00000000
Si      -0.51152229      -2.89901727       2.18994128       0.00000000
Si       1.66439817      -2.00033055       2.69198261       0.00000000
Si       2.09176632       2.81038338       1.39925380       0.00000000
Si       1.15764885      -3.60338058      -0.47111249       0.00000000
Si      -2.97215027      -1.83384675      -1.57198585       0.00000000
