10
Lattice="16.28999089631971 0.0 0.0 0.0 16.28999089631971 0.0 0.0 0.0 34.51877397758722" Properties=species:S:1:pos:R:3:initial_magmoms:R:1 pbc="T T T"
Si      -0.80897022       1.95504435       0.96058898       0.00000000
Si       2.33896544      -0.13597263      -0.16210025       0.00000000
Si      -0.72448504      -1.92529881       1.19787116       0.00000000
Si       0.41829625       3.16128627      -0.87004618       0.00000000
Si       0.24973710       1.69318260      -3.08553137       0.00000000
Si       0.36977811       2.29659678       3.12571125       0.00000000
Si       3.32082890       0.18551052       2.06146233       0.00000000
Si       0.92795822      -2.73846303       2.72515517       0.00000000
Si      -1.50455322      -3.71465757      -0.11860657       0.00000000
Si      -2.61771408      -1.60665012       2.67158201       0.00000000
