10
Lattice="16.28999089631971 0.0 0.0 0.0 16.28999089631971 0.0 0.0 0.0 34.56954931742767" Properties=species:S:1:pos:R:3:initial_magmoms:R:1 pbc="T T T"
Si      -1.35395964      -1.07843547       1.79647677       0.00000000
Si       1.28379861       2.29081383       1.11829098       0.00000000
Si      -0.11577303      -0.93227833      -2.69901907       0.00000000
Si       1.21174794      -2.52220418      -1.06757742       0.00000000
Si      -2.33463393      -0.33642108      -1.95466712       0.00000000
Si      -2.66434353       1.56048426      -0.12687032       0.00000000
Si      -1.03913910       2.88148923       1.17042189       0.00000000
Si      -3.62943969      -0.40780386       1.15061352       0.00000000
Si       1.73296278       2.48404581      -2.64308551       0.00000000
Si      -0.86027490      -3.38666561       2.03310547       0.00000000
