10
Lattice="16.28999089631971 0.0 0.0 0.0 16.28999089631971 0.0 0.0 0.0 34.56954931742767" Properties=species:S:1:pos:R:3:initial_magmoms:R:1 pbc="T T T"
Si      -2.16619533      -0.71005571       0.26297071       0.00000000
Si       1.06622937      -0.95754968      -1.85877114       0.00000000
Si      -0.61121709       2.03685273       1.31364361       0.00000000
Si       2.37210093       0.15070693       1.32232057       0.00000000
Si      -1.03488741      -1.16440010       2.29320691       0.00000000
Si       1.41521004      -3.20465744      -1.18573620       0.00000000
Si       0.98751609       3.59137485       0.22829743       0.00000000
Si       3.37610250      -0.41717780      -1.68270832       0.00000000
Si       0.08120565       3.18397824      -2.12799894       0.00000000
Si      -2.58605379      -2.77404758      -0.66539506       0.00000000
