10
Lattice="16.28999089631971 0.0 0.0 0.0 16.28999089631971 0.0 0.0 0.0 34.56954931742767" Properties=species:S:1:pos:R:3:initial_magmoms:R:1 pbc="T T T"
Si      -0.09565488      -2.30117753       0.46627434       0.00000000
Si      -2.34600435       0.30082743       0.21367450       0.00000000
Si       0.24747768       0.91018746      -2.21055107       0.00000000
Si       1.46186460       0.58326345       1.95667215       0.00000000
Si      -2.41227207       2.61750978       0.53817904       0.00000000
Si       2.44835442       1.64849913      -2.36155094       0.00000000
Si      -1.05516846      -3.40724377      -1.34783291       0.00000000
Si      -0.83665440      -2.73394907       2.65138221       0.00000000
Si       3.24171000      -1.10483667       1.96714673       0.00000000
Si      -0.80578485       3.00082977      -2.71156782       0.00000000
