10
Lattice="16.28999089631971 0.0 0.0 0.0 16.28999089631971 0.0 0.0 0.0 34.56954931742767" Properties=species:S:1:pos:R:3:initial_magmoms:R:1 pbc="T T T"
Si       1.33613838       1.36430379       1.39248297       0.00000000
Si      -1.37916027      -1.35029439       1.38826548       0.00000000
Si      -1.30675122       1.43725041      -1.40983343       0.00000000
Si       1.37419182      -1.47760074      -1.61798718       0.00000000
Si       2.68376121       2.71858923       0.00771247       0.00000000
Si       2.68951158      -2.71684620       0.00637809       0.00000000
Si       2.69454519       0.00750969       2.75127443       0.00000000
Si      -2.74634739      -2.69977428       0.02158870       0.00000000
Si      -0.02047653      -2.70809847       2.75172384       0.00000000
Si      -2.74089024       2.72082096       0.00784384       0.00000000
