10
Lattice="16.28999089631971 0.0 0.0 0.0 16.28999089631971 0.0 0.0 0.0 34.56954931742767" Properties=species:S:1:pos:R:3:initial_magmoms:R:1 pbc="T T T"
Si      -2.32293771       0.59067540       0.05213091       0.00000000
Si       0.77480127       2.22738057      -0.62211396       0.00000000
Si       0.16055424      -0.07530867       2.53778660       0.00000000
Si      -1.28379861      -2.29081383      -1.11829098       0.00000000
Si       0.44916417       0.19323198      -3.76137649       0.00000000
Si      -1.03364937       3.67028361      -0.17378122       0.00000000
Si      -2.61495225       2.41023582      -1.45949262       0.00000000
Si       2.24775936      -1.17172341       3.02466441       0.00000000
Si       3.01145085      -1.30259727      -2.19997278       0.00000000
Si       0.57901176       2.12519340       3.37426646       0.00000000
