10
Lattice="16.28999089631971 0.0 0.0 0.0 16.28999089631971 0.0 0.0 0.0 34.56954931742767" Properties=species:S:1:pos:R:3:initial_magmoms:R:1 pbc="T T T"
Si      -0.45898704       1.99158282      -1.15607551       0.00000000
Si      -1.87458804      -1.43612640       0.00107166       0.00000000
Si       1.50399054      -1.56970440      -1.07379994       0.00000000
Si       1.08802539       1.89907191       1.83688860       0.00000000
Si      -2.51401941      -0.06294456       1.83395019       0.00000000
Si      -0.09474264      -3.12422652       0.01154624       0.00000000
Si      -0.85688658       1.16634771       3.25275584       0.00000000
Si       1.33152831       3.40144974      -0.79444326       0.00000000
Si      -0.17824518       1.64313972      -3.41982915       0.00000000
Si       3.18181167       0.09881514       2.13774755       0.00000000
