10
Lattice="16.28999089631971 0.0 0.0 0.0 16.28999089631971 0.0 0.0 0.0 34.56954931742767" Properties=species:S:1:pos:R:3:initial_magmoms:R:1 pbc="T T T"
Si       1.35801585       1.35682668       1.35699385       0.00000000
Si       1.35778779      -1.35721764      -1.35785809       0.00000000
Si      -1.35738054       1.35826020      -1.35737411       0.00000000
Si      -1.35988920      -1.35786924       1.35612961       0.00000000
Si      -2.71050939      -0.00275301       2.71526677       0.00000000
Si      -0.00034209      -2.70946683       2.71779035       0.00000000
Si      -2.71466334      -2.71471221      -0.00003457       0.00000000
Si       0.00123804       2.71251306       2.71696068       0.00000000
Si       2.71511946      -2.71443528       0.00031113       0.00000000
Si       0.00003258       2.71531494      -2.71429882       0.00000000
