10
Lattice="16.28999089631971 0.0 0.0 0.0 16.28999089631971 0.0 0.0 0.0 34.56954931742767" Properties=species:S:1:pos:R:3:initial_magmoms:R:1 pbc="T T T"
Si       0.79902450      -1.17602397       1.82520408       0.00000000
Si       1.20124089       1.49250609      -1.32892336       0.00000000
Si      -2.35395387       0.15555321       0.24575506       0.00000000
Si      -0.33304905      -1.02068253      -2.15821274       0.00000000
Si       1.99749609      -0.62203365      -2.39342408       0.00000000
Si      -0.29387160      -3.18834396       1.20243331       0.00000000
Si      -0.46498176      -3.17454633      -1.23976844       0.00000000
Si      -0.33689349      -0.10270845       3.54656119       0.00000000
Si      -0.62641566       2.82545163      -2.12945086       0.00000000
Si       3.12557859      -0.77739138       1.79499028       0.00000000
