10
Lattice="16.28999089631971 0.0 0.0 0.0 16.28999089631971 0.0 0.0 0.0 34.56954931742767" Properties=species:S:1:pos:R:3:initial_magmoms:R:1 pbc="T T T"
Si      -0.79902450       1.17602397      -1.82520408       0.00000000
Si      -1.13591799       1.07331552       1.72135710       0.00000000
Si       2.32655409       0.39863259      -0.03021380       0.00000000
Si      -1.09289610      -2.01231999      -0.62277078       0.00000000
Si       2.54122371      -0.33914151      -2.27844570       0.00000000
Si       0.34865487      -3.54361257       0.48307515       0.00000000
Si      -3.15297837       1.33157718      -1.57944902       0.00000000
Si      -1.46362392       3.33180999       1.22842962       0.00000000
Si      -1.26400626      -1.99852236      -3.06497252       0.00000000
Si      -0.20180052       0.78688845       3.80911706       0.00000000
