10
Lattice="16.28999089631971 0.0 0.0 0.0 16.28999089631971 0.0 0.0 0.0 34.56954931742767" Properties=species:S:1:pos:R:3:initial_magmoms:R:1 pbc="T T T"
Si      -0.16057053       0.14398731       2.35121464       0.00000000
Si      -1.14215706       2.08468017      -0.02409499       0.00000000
Si      -0.89541243      -2.01622959      -0.95864871       0.00000000
Si       2.32865550       0.08667909      -0.60289328       0.00000000
Si       0.83072484       2.34525501       2.62680324       0.00000000
Si       0.33306534      -3.72619089       0.14055987       0.00000000
Si      -2.07627453       2.37110724      -2.11185495       0.00000000
Si       3.37825278      -1.69507224       0.54173971       0.00000000
Si       0.28413018       3.73036113       0.77944006       0.00000000
Si       0.79661358      -1.72041948       3.39445508       0.00000000
