10
Lattice="16.28999089631971 0.0 0.0 0.0 16.28999089631971 0.0 0.0 0.0 34.56954931742767" Properties=species:S:1:pos:R:3:initial_magmoms:R:1 pbc="T T T"
Si       0.05809014      -1.73012832       1.58401220       0.00000000
Si       1.31709537       1.94718347       0.43730504       0.00000000
Si      -0.96703956      -0.71964333      -2.30489142       0.00000000
Si      -2.58354513       0.26647182      -0.90800429       0.00000000
Si       1.92332772      -2.99978721      -0.01106226       0.00000000
Si      -1.87892118      -2.87316504       1.01492797       0.00000000
Si       1.29375180       2.29823297      -2.60906905       0.00000000
Si       3.38458959       1.63263171      -0.91215264       0.00000000
Si       0.49995639       3.77689256      -0.92210867       0.00000000
Si      -0.25199001      -1.06157043       3.79943758       0.00000000
