10
Lattice="16.28999089631971 0.0 0.0 0.0 16.28999089631971 0.0 0.0 0.0 34.56954931742767" Properties=species:S:1:pos:R:3:initial_magmoms:R:1 pbc="T T T"
Si       1.38134313       1.34110194      -1.30612961       0.00000000
Si       1.36357074      -1.23145635       1.46781006       0.00000000
Si      -1.34727624       1.49002512       1.44801206       0.00000000
Si      -1.17089262      -1.33437484      -1.77620660       0.00000000
Si       2.15857161      -0.48003698      -2.73305769       0.00000000
Si      -2.59363583      -2.57480947      -0.10951985       0.00000000
Si      -0.29384065       2.34801942      -2.82152122       0.00000000
Si      -2.11265729       0.58612560      -3.04449493       0.00000000
Si       2.73935898      -2.56982473       0.03572765       0.00000000
Si       0.00691348      -2.58122773       2.83583851       0.00000000
