10
Lattice="16.28999089631971 0.0 0.0 0.0 16.28999089631971 0.0 0.0 0.0 34.56954931742767" Properties=species:S:1:pos:R:3:initial_magmoms:R:1 pbc="T T T"
Si      -2.08484537       1.04504748      -0.17333182       0.00000000
Si      -0.34865324      -0.92428875       2.17598150       0.00000000
Si       0.03778303      -1.80323199      -1.58470360       0.00000000
Si       1.95469086       1.36845937      -0.54816965       0.00000000
Si       1.76284353       0.88921408      -2.92226935       0.00000000
Si      -1.89593024       2.57862229      -1.89544945       0.00000000
Si       1.02715455      -3.56704803      -0.43211961       0.00000000
Si       2.25652827      -1.41901605      -2.68564065       0.00000000
Si      -3.79698953      -0.58117248       0.26068912       0.00000000
Si      -2.34092417       2.76214543       1.39090659       0.00000000
