10
Lattice="16.28999089631971 0.0 0.0 0.0 16.28999089631971 0.0 0.0 0.0 34.56954931742767" Properties=species:S:1:pos:R:3:initial_magmoms:R:1 pbc="T T T"
Si       0.26321382      -0.18345309      -2.29146084       0.00000000
Si      -0.81207279      -1.91742489       1.21212834       0.00000000
Si       2.00047716       0.81847639       1.09545259       0.00000000
Si      -1.80895563       1.65670603      -0.09983311       0.00000000
Si       0.56992194       2.05558297       2.58213763       0.00000000
Si      -2.18123100      -0.66765587       2.61133855       0.00000000
Si      -0.73977777       3.41511379       1.15313537       0.00000000
Si       0.94556934       2.11377085      -2.88574629       0.00000000
Si      -3.14377452      -1.49856012      -1.32057450       0.00000000
Si      -3.51233577       0.67821134       1.22072234       0.00000000
