10
Lattice="16.28999089631971 0.0 0.0 0.0 16.28999089631971 0.0 0.0 0.0 34.56954931742767" Properties=species:S:1:pos:R:3:initial_magmoms:R:1 pbc="T T T"
Si      -0.56198871       0.45861628       2.19893569       0.00000000
Si       2.14068519      -1.11384343       0.01337842       0.00000000
Si      -0.22845096       2.15900395      -1.12195535       0.00000000
Si      -1.76691114      -1.70005537      -0.05105925       0.00000000
Si       1.16587530       2.01371344       2.51770168       0.00000000
Si      -1.45683099      -2.36861326      -2.26648463       0.00000000
Si      -0.19782576       1.30869853      -3.41319179       0.00000000
Si      -2.57308695       1.68050149       2.02069500       0.00000000
Si       1.49856597      -3.28233565       0.81003413       0.00000000
Si      -1.77865623       3.26928148       0.45203168       0.00000000
