10
Lattice="16.28999089631971 0.0 0.0 0.0 16.28999089631971 0.0 0.0 0.0 34.56954931742767" Properties=species:S:1:pos:R:3:initial_magmoms:R:1 pbc="T T T"
Si       1.30969971      -1.35953082       1.42900226       0.00000000
Si       1.29622788       1.51062057      -1.32707185       0.00000000
Si      -1.06917786      -1.75840776      -1.25296848       0.00000000
Si      -1.42715061       1.33890768       1.41230170       0.00000000
Si       0.73977777      -3.41511379      -1.15313537       0.00000000
Si      -2.74247037       2.57815314      -0.21206356       0.00000000
Si      -0.79755840       3.31087734      -1.62793081       0.00000000
Si       2.74025493      -2.59663740      -0.05768278       0.00000000
Si       2.64606615      -0.00996948       2.80051532       0.00000000
Si      -0.06444324       2.70741429       2.80037705       0.00000000
