10
Lattice="16.28999089631971 0.0 0.0 0.0 16.28999089631971 0.0 0.0 0.0 34.56954931742767" Properties=species:S:1:pos:R:3:initial_magmoms:R:1 pbc="T T T"
Si       1.35742941       1.35865116       1.35599133       0.00000000
Si      -1.35733167       1.35721764      -1.35816921       0.00000000
Si       1.35783666      -1.35749457      -1.35747782       0.00000000
Si      -1.35744570      -1.35886293       1.35702842       0.00000000
Si      -2.71415835      -0.00042354      -2.71530134       0.00000000
Si      -0.00003258      -2.71448415      -2.71499021       0.00000000
Si      -2.71511946       2.71443528      -0.00031113       0.00000000
Si       2.71511946      -0.00057015      -2.71457538       0.00000000
Si       2.71513575       2.71511946      -0.00027656       0.00000000
Si      -2.71502172      -2.71523349      -0.00051854       0.00000000
