10
Lattice="16.28999089631971 0.0 0.0 0.0 16.28999089631971 0.0 0.0 0.0 34.56954931742767" Properties=species:S:1:pos:R:3:initial_magmoms:R:1 pbc="T T T"
Si      -1.96188615      -0.71019513      -1.12053800       0.00000000
Si       0.03489318       2.39208876       0.11432156       0.00000000
Si       0.14579550      -0.51829893       2.33849304       0.00000000
Si       1.85777676      -0.53875917      -1.50495160       0.00000000
Si      -2.15767566      -0.81238230       2.87584241       0.00000000
Si       1.11408939       1.39572720       3.28583750       0.00000000
Si       2.00425644       3.00991959      -1.00279405       0.00000000
Si       3.47376105      -1.66746069      -0.18325328       0.00000000
Si      -3.77033679       0.73270791      -0.67220526       0.00000000
Si      -0.17977644       3.12986286       2.36255346       0.00000000
