10
Lattice="16.28999089631971 0.0 0.0 0.0 16.28999089631971 0.0 0.0 0.0 34.56954931742767" Properties=species:S:1:pos:R:3:initial_magmoms:R:1 pbc="T T T"
Si      -0.09568746      -1.71445734      -1.61571250       0.00000000
Si       1.61598429      -1.12870152       1.32169832       0.00000000
Si       1.43514900       1.83954825      -0.67822037       0.00000000
Si      -1.85777676       0.53875917       1.50495160       0.00000000
Si      -1.04982534       0.01391166      -2.84110000       0.00000000
Si       0.14647968       3.54867876       0.50215755       0.00000000
Si       2.67138081       0.60784506       2.59997726       0.00000000
Si      -1.82288358       2.93084793       1.61927316       0.00000000
Si      -3.81966291      -0.17143596       0.38441360       0.00000000
Si       3.48615774      -2.21141637       0.15220981       0.00000000
