10
Lattice="16.28999089631971 0.0 0.0 0.0 16.28999089631971 0.0 0.0 0.0 34.56954931742767" Properties=species:S:1:pos:R:3:initial_magmoms:R:1 pbc="T T T"
Si      -1.35526284       1.35733167      -1.36321637       0.00000000
Si       1.36137159      -1.35824391      -1.36325094       0.00000000
Si      -1.36503684      -1.36519974       1.37573055       0.00000000
Si       1.37342619       1.35920502       1.37652565       0.00000000
Si      -2.71270854       2.70918990      -0.00646451       0.00000000
Si      -2.71306692      -2.71520091      -0.00397550       0.00000000
Si       2.71611315       2.71254564      -0.00390636       0.00000000
Si       2.71562445      -2.71494027      -0.00477060       0.00000000
Si      -2.71231758      -0.00167787      -2.72024479       0.00000000
Si       0.00231318       2.71321353      -2.72048677       0.00000000
