10
Lattice="16.28999089631971 0.0 0.0 0.0 16.28999089631971 0.0 0.0 0.0 34.56954931742767" Properties=species:S:1:pos:R:3:initial_magmoms:R:1 pbc="T T T"
Si      -0.32011479      -0.00039096       2.30018996       0.00000000
Si      -1.14784227      -1.94676903      -0.68893693       0.00000000
Si       2.36491704       0.14097366      -0.37947015       0.00000000
Si      -1.35835794       1.87510932      -0.76305409       0.00000000
Si       2.13429951       2.23614459      -1.41617695       0.00000000
Si       1.22051196       1.75353705       2.90125105       0.00000000
Si       2.72157030      -1.88902098      -1.56275192       0.00000000
Si      -3.19236759       1.69691301       0.69339641       0.00000000
Si      -2.64577293       0.31180689       2.54075959       0.00000000
Si      -0.79643439      -2.07115947      -3.02618547       0.00000000
