10
Lattice="16.28999089631971 0.0 0.0 0.0 16.28999089631971 0.0 0.0 0.0 34.56954931742767" Properties=species:S:1:pos:R:3:initial_magmoms:R:1 pbc="T T T"
Si      -2.28771873       0.07929972      -0.27710966       0.00000000
Si       0.69115212      -0.26052597       2.20595331       0.00000000
Si       0.82877004       1.91973319      -1.03145222       0.00000000
Si       0.65632410      -1.86694803      -1.27440715       0.00000000
Si       1.96721298       0.94280004      -2.80753295       0.00000000
Si      -2.83633335      -2.22798330      -0.62128429       0.00000000
Si       2.70516627      -1.25025750      -2.15686453       0.00000000
Si       3.04359102       0.04210965       2.14718505       0.00000000
Si      -2.66075973       1.80004730      -1.89710879       0.00000000
Si      -0.93289572       3.35514446      -1.57834280       0.00000000
