10
Lattice="16.28999089631971 0.0 0.0 0.0 16.28999089631971 0.0 0.0 0.0 34.56954931742767" Properties=species:S:1:pos:R:3:initial_magmoms:R:1 pbc="T T T"
Si       1.12669785      -0.93872754      -1.85144239       0.00000000
Si       1.01750598      -0.34676523       2.13480914       0.00000000
Si       0.08876421       2.39165612      -0.09396009       0.00000000
Si      -2.05718265      -1.17538866      -0.48850257       0.00000000
Si       0.75365685       0.78202004      -3.47144151       0.00000000
Si      -1.25592642      -3.42420687      -0.73916652       0.00000000
Si      -1.67513328       3.10447394      -1.57740942       0.00000000
Si       3.41441658      -1.01802726      -1.57433273       0.00000000
Si       0.57808323      -3.24601056      -2.19561701       0.00000000
Si      -3.54595833      -1.42921944       1.30634943       0.00000000
