10
Lattice="16.28999089631971 0.0 0.0 0.0 16.28999089631971 0.0 0.0 0.0 34.56954931742767" Properties=species:S:1:pos:R:3:initial_magmoms:R:1 pbc="T T T"
Si      -1.43055522       1.23710658       1.48668504       0.00000000
Si      -2.00047716      -0.81847639      -1.09545259       0.00000000
Si       1.27109241      -1.48829905       1.45759129       0.00000000
Si       1.46539953       1.26401766      -1.50335591       0.00000000
Si      -2.74025493       2.59663740       0.05768278       0.00000000
Si       2.67722892       2.66440380      -0.01345793       0.00000000
Si      -0.09418878       2.58666792       2.85819811       0.00000000
Si       2.62454706      -0.12668896       2.85294353       0.00000000
Si      -2.81254995      -2.73590128       0.11667575       0.00000000
Si      -1.73726334      -1.00192948      -3.38691343       0.00000000
