10
Lattice="16.28999089631971 0.0 0.0 0.0 16.28999089631971 0.0 0.0 0.0 34.56954931742767" Properties=species:S:1:pos:R:3:initial_magmoms:R:1 pbc="T T T"
Si      -0.18568971      -2.03898346      -1.10429030       0.00000000
Si       2.08023300      -0.08609265       1.05316191       0.00000000
Si       0.16739604       1.78114860      -1.50616154       0.00000000
Si      -2.12242410       0.71127027       0.77498059       0.00000000
Si      -0.46827234       0.07739379      -3.24355892       0.00000000
Si      -1.70277741       2.86386345      -0.33667303       0.00000000
Si       2.45242692       2.50106886      -1.03224732       0.00000000
Si       3.46352671      -1.10486925      -0.61952124       0.00000000
Si       1.89973980      -2.22508042      -2.28463365       0.00000000
Si       1.89131787      -1.61966746       2.77527954       0.00000000
