10
Lattice="16.28999089631971 0.0 0.0 0.0 16.28999089631971 0.0 0.0 0.0 34.56954931742767" Properties=species:S:1:pos:R:3:initial_magmoms:R:1 pbc="T T T"
Si       0.18568971       2.03898346       1.10429030       0.00000000
Si      -0.16588107      -2.04315111       1.14698372       0.00000000
Si       2.08542951      -0.18609696      -1.18034335       0.00000000
Si      -1.83145212       0.18587379      -1.73757023       0.00000000
Si      -0.28258263       2.11637725      -2.13926862       0.00000000
Si      -1.30684896      -3.07968381      -0.99850742       0.00000000
Si       2.26592271       1.95289081       2.15745221       0.00000000
Si       1.47942522       0.83336056      -3.27951127       0.00000000
Si       3.64921642       0.93411421       0.48476906       0.00000000
Si      -1.27602828      -1.81991295      -3.14589989       0.00000000
