10
Lattice="16.28999089631971 0.0 0.0 0.0 16.28999089631971 0.0 0.0 0.0 34.56954931742767" Properties=species:S:1:pos:R:3:initial_magmoms:R:1 pbc="T T T"
Si      -1.46284200      -1.34353567      -1.15220372       0.00000000
Si       1.68164928      -1.53934310       0.59995486       0.00000000
Si       1.13166630       1.02284910      -1.79806697       0.00000000
Si      -1.47269745       1.59578469       0.97444700       0.00000000
Si       3.18869161       0.13326849       1.30313446       0.00000000
Si      -0.52636248       3.42665037      -0.19127342       0.00000000
Si       3.05366054       1.72199961      -0.52466234       0.00000000
Si      -3.22450776       0.09187560      -1.69909430       0.00000000
Si       1.38774510      -0.69424885      -3.36230538       0.00000000
Si      -0.43038180       2.77845498      -2.41696596       0.00000000
