10
Lattice="16.28999089631971 0.0 0.0 0.0 16.28999089631971 0.0 0.0 0.0 34.56954931742767" Properties=species:S:1:pos:R:3:initial_magmoms:R:1 pbc="T T T"
Si       1.35477414       1.35684297       1.35616418       0.00000000
Si      -1.35770145       1.35710361      -1.35733954       0.00000000
Si       1.35747828      -1.35751086      -1.35758153       0.00000000
Si      -1.35876193      -1.35821133       1.35799636       0.00000000
Si       0.00415395       2.71195920       2.71530134       0.00000000
Si       2.71466334       2.71471221       0.00003457       0.00000000
Si      -0.00027693      -2.71443528      -2.71495564       0.00000000
Si       2.71476108      -2.71495656      -0.00017285       0.00000000
Si      -0.00048870       2.71511946      -2.71464452       0.00000000
Si      -2.71492231      -2.71503801       0.00017285       0.00000000
