10
Lattice="16.28999089631971 0.0 0.0 0.0 16.28999089631971 0.0 0.0 0.0 34.56954931742767" Properties=species:S:1:pos:R:3:initial_magmoms:R:1 pbc="T T T"
Si      -0.09598068       0.64819539       2.22569254       0.00000000
Si      -2.13641721      -0.84484827      -0.66397770       0.00000000
Si       0.93828771       1.74752604      -1.35505795       0.00000000
Si       1.56204810      -1.75560588       0.61889899       0.00000000
Si       2.24354025       0.81290358       2.66510632       0.00000000
Si       2.61676044       0.38209824      -2.41783020       0.00000000
Si       0.43038180      -2.77845498       2.41696596       0.00000000
Si      -1.04231565      -1.18267029       3.39141296       0.00000000
Si      -2.19561507      -1.14176610      -2.94563837       0.00000000
Si       2.00704203      -1.93912902      -2.66745706       0.00000000
