10
Lattice="16.28999089631971 0.0 0.0 0.0 16.28999089631971 0.0 0.0 0.0 34.56954931742767" Properties=species:S:1:pos:R:3:initial_magmoms:R:1 pbc="T T T"
Si      -1.35542512       1.35599589      -1.35827292       0.00000000
Si       1.35753822      -1.35920502      -1.35768524       0.00000000
Si       1.35650055       1.35531171       1.37486631       0.00000000
Si      -1.36404253      -1.35110889       1.37687135       0.00000000
Si      -2.71378306      -0.00074934      -2.71578531       0.00000000
Si       0.00084655       2.71396287      -2.71568160       0.00000000
Si      -2.71560754      -2.71479366       0.00107166       0.00000000
Si      -2.71549351       2.71580364       0.00010371       0.00000000
Si       2.72045410       2.71096551      -0.00038027       0.00000000
Si       0.00137784      -2.71603170      -2.71550876       0.00000000
