10
Lattice="16.28999089631971 0.0 0.0 0.0 16.28999089631971 0.0 0.0 0.0 34.56954931742767" Properties=species:S:1:pos:R:3:initial_magmoms:R:1 pbc="T T T"
Si       0.72306816      -1.96276581      -1.13118542       0.00000000
Si      -2.39419017      -0.35580618       0.16876863       0.00000000
Si       1.41166438       0.31060143       2.02840401       0.00000000
Si       0.48935227       1.23934320      -2.13823153       0.00000000
Si       1.80856860       2.64015288      -0.64679663       0.00000000
Si      -0.13344768       1.10737791       3.64919823       0.00000000
Si      -0.16765668      -3.85423029      -0.04787885       0.00000000
Si      -0.22182093       3.90464784      -0.61713594       0.00000000
Si      -3.58521723       1.61679879       0.52583771       0.00000000
Si       2.83405994       2.23883244       1.64426696       0.00000000
