10
Lattice="16.28999089631971 0.0 0.0 0.0 16.28999089631971 0.0 0.0 0.0 34.56954931742767" Properties=species:S:1:pos:R:3:initial_magmoms:R:1 pbc="T T T"
Si      -0.16676073       0.43109856       2.26116091       0.00000000
Si       1.19102706      -1.97260497      -0.35706907       0.00000000
Si      -2.20714839      -0.43085421      -0.69768303       0.00000000
Si       1.17335241       1.44334287      -1.75886508       0.00000000
Si      -0.91847907      -2.13998472      -1.87806096       0.00000000
Si      -2.51327007       1.83236436      -1.48223939       0.00000000
Si       2.02561263       1.31996241       2.53305057       0.00000000
Si      -0.77219487      -1.81537389       3.00039657       0.00000000
Si      -0.52740504       3.19922568      -1.64426696       0.00000000
Si       0.31775274      -3.37168791       1.40013667       0.00000000
