10
Lattice="16.28999089631971 0.0 0.0 0.0 16.28999089631971 0.0 0.0 0.0 34.56954931742767" Properties=species:S:1:pos:R:3:initial_magmoms:R:1 pbc="T T T"
Si       1.30862850       1.32511005       1.42309086       0.00000000
Si       1.54511206      -0.79677648      -1.62079423       0.00000000
Si      -1.42615692       1.82938329      -0.59030995       0.00000000
Si      -0.93159252      -1.95502806       1.07283199       0.00000000
Si       2.51668187       2.59555086      -0.14833802       0.00000000
Si       2.96750762       1.13145453      -2.00493127       0.00000000
Si       2.75547698      -2.53115649      -0.34600681       0.00000000
Si       3.00671765       0.03723894       2.33925357       0.00000000
Si       0.13344768      -1.10737791      -3.64919823       0.00000000
Si      -3.61853028       0.94051944      -0.86219961       0.00000000
