10
Lattice="16.28999089631971 0.0 0.0 0.0 16.28999089631971 0.0 0.0 0.0 34.56954931742767" Properties=species:S:1:pos:R:3:initial_magmoms:R:1 pbc="T T T"
Si      -2.09948778       0.60154083       0.85818954       0.00000000
Si       1.25965683      -0.61356285       1.89845700       0.00000000
Si      -0.54356472      -1.90708659      -1.37210075       0.00000000
Si       0.93159252       1.95502806      -1.07283199       0.00000000
Si      -3.29237190       0.64907505      -1.19579595       0.00000000
Si       3.45842306      -0.31625406       1.01036478       0.00000000
Si      -2.20242429      -0.90723897      -2.79605585       0.00000000
Si      -2.62006731      -0.95298129       2.59724626       0.00000000
Si       2.47670458       1.15825158      -2.69362622       0.00000000
Si       0.33060555       0.58841109       3.78339730       0.00000000
