10
Lattice="16.28999089631971 0.0 0.0 0.0 16.28999089631971 0.0 0.0 0.0 34.56954931742767" Properties=species:S:1:pos:R:3:initial_magmoms:R:1 pbc="T T T"
Si       1.55615994      -0.14498100       1.71357895       0.00000000
Si      -1.07875638       2.13439725      -0.00245444       0.00000000
Si      -1.87937730      -1.18276803       0.90458190       0.00000000
Si       0.92905128      -1.20197394      -1.88494030       0.00000000
Si      -2.95067286      -1.54139238      -1.18615104       0.00000000
Si       0.43108227      -3.43012014      -1.13533377       0.00000000
Si       2.39948020      -2.30904234       1.72623141       0.00000000
Si      -2.02528683       2.36125179       2.15302730       0.00000000
Si      -2.43009333       0.01312974      -2.92520776       0.00000000
Si      -2.76736149       0.19214055       2.62711437       0.00000000
