10
Lattice="16.28999089631971 0.0 0.0 0.0 16.28999089631971 0.0 0.0 0.0 34.56954931742767" Properties=species:S:1:pos:R:3:initial_magmoms:R:1 pbc="T T T"
Si       1.34268696       1.35334062      -1.38043201       0.00000000
Si      -1.37342619      -1.35920502      -1.37652565       0.00000000
Si      -1.26768780       1.44228402       1.47242164       0.00000000
Si       1.26048762      -1.50594534       1.44718585       0.00000000
Si      -2.15130627      -0.42981165       2.82830926       0.00000000
Si      -0.48384558      -2.44213164       2.78247001       0.00000000
Si       2.70172908       2.70977634       0.00636080       0.00000000
Si       2.69107542      -2.72391606      -0.00947206       0.00000000
Si      -2.72117934       2.70562239      -0.00508173       0.00000000
Si       2.70168021      -0.00218286      -2.73994944       0.00000000
