10
Lattice="16.28999089631971 0.0 0.0 0.0 16.28999089631971 0.0 0.0 0.0 34.56954931742767" Properties=species:S:1:pos:R:3:initial_magmoms:R:1 pbc="T T T"
Si      -1.13844294       0.97693315       1.77608073       0.00000000
Si       1.71214416       1.62621997      -0.43402093       0.00000000
Si       0.73795329      -2.19305754       0.65066842       0.00000000
Si      -1.92529881      -0.71521245      -1.27513311       0.00000000
Si      -0.53074449      -0.83624715      -3.16660706       0.00000000
Si      -1.31088888      -2.80974807       1.53312580       0.00000000
Si      -1.96721298      -0.94280004       2.80753295       0.00000000
Si       0.32439906       2.32046882       2.92828445       0.00000000
Si       1.61745039      -2.07508536      -2.70880226       0.00000000
Si       1.45606536       3.34331792       1.13021748       0.00000000
