10
Lattice="16.28999089631971 0.0 0.0 0.0 16.28999089631971 0.0 0.0 0.0 34.56954931742767" Properties=species:S:1:pos:R:3:initial_magmoms:R:1 pbc="T T T"
Si      -1.63141322      -1.08628236      -1.28557312       0.00000000
Si      -1.34720092       1.26452754       1.44262267       0.00000000
Si       1.05621591       1.58690664      -1.38406182       0.00000000
Si      -1.11348503      -1.93758147       2.44966877       0.00000000
Si       1.30517598      -2.32613055       2.45388626       0.00000000
Si      -0.26127857      -2.43660933      -2.68951244       0.00000000
Si       2.45816589       0.26437041      -2.69383364       0.00000000
Si      -2.47547957      -2.72925918       0.23541876       0.00000000
Si       2.58104136      -2.72859129       0.17357380       0.00000000
Si       2.89970634       2.54793519      -0.13858940       0.00000000
