10
Lattice="16.28999089631971 0.0 0.0 0.0 16.28999089631971 0.0 0.0 0.0 34.56954931742767" Properties=species:S:1:pos:R:3:initial_magmoms:R:1 pbc="T T T"
Si       1.35771611      -1.35259128       1.35785809       0.00000000
Si       1.35665726       1.34977139      -1.36802845       0.00000000
Si      -1.35588266       1.36123651       1.35761610       0.00000000
Si      -1.33844897      -1.34496756      -1.39371364       0.00000000
Si      -0.00691348       2.58122773      -2.83583851       0.00000000
Si       2.71382603      -2.71223613      -0.00418292       0.00000000
Si       0.00017267      -2.71178001       2.71523220       0.00000000
Si      -2.71431866      -2.71303434      -0.00311126       0.00000000
Si      -2.71435124       0.00286704       2.71526677       0.00000000
Si       2.71499891       0.00286704       2.71543962       0.00000000
