10
Lattice="16.28999089631971 0.0 0.0 0.0 16.28999089631971 0.0 0.0 0.0 34.56954931742767" Properties=species:S:1:pos:R:3:initial_magmoms:R:1 pbc="T T T"
Si      -1.35722801      -1.35601218       1.35720126       0.00000000
Si      -1.35685334       1.35755973      -1.35740868       0.00000000
Si       1.35767058      -1.35708732      -1.35744325       0.00000000
Si       1.35798009       1.35814617       1.35858405       0.00000000
Si       0.00051979      -2.71471221      -2.71467909       0.00000000
Si      -2.71433162       0.00061902      -2.71509392       0.00000000
Si      -2.71514612      -2.71461447      -0.00006914       0.00000000
Si       2.71506741      -2.71469592       0.00017285       0.00000000
Si       2.71521402       0.00210141      -2.71481736       0.00000000
Si      -2.71519499       2.71520873       0.00027656       0.00000000
