10
Lattice="10.86 0.0 0.0 0.0 10.86 0.0 0.0 0.0 10.86" Properties=species:S:1:pos:R:3:initial_magmoms:R:1 pbc="T T T"
Si      -1.36971750      -1.32141222      -1.32489828       0.00000000
Si       1.34528250      -1.32141222       1.39010172       0.00000000
Si       1.34528250       1.39358778      -1.32489828       0.00000000
Si      -0.01221750      -2.67891222      -2.68239828       0.00000000
Si       2.70278250      -2.67891222       0.03260172       0.00000000
Si       2.70278250       0.03608778      -2.68239828       0.00000000
Si      -2.72721750      -2.67891222       0.03260172       0.00000000
Si      -2.72721750       0.03608778      -2.68239828       0.00000000
Si      -0.01221750      -2.67891222       2.74760172       0.00000000
Si      -0.01221750       2.75108778      -2.68239828       0.00000000
